
---------- Begin Simulation Statistics ----------
simSeconds                                   0.001760                       # Number of seconds simulated (Second)
simTicks                                   1759663908                       # Number of ticks simulated (Tick)
finalTick                                  2087628948                       # Number of ticks from beginning of simulation (restored from checkpoints and never reset) (Tick)
simFreq                                  1000000000000                       # The number of ticks per simulated second ((Tick/Second))
hostSeconds                                     82.25                       # Real time elapsed on the host (Second)
hostTickRate                                 21394493                       # The number of ticks simulated per host second (ticks/s) ((Tick/Second))
hostMemory                                    1754496                       # Number of bytes of host memory used (Byte)
simInsts                                      1568743                       # Number of instructions simulated (Count)
simOps                                        2500503                       # Number of ops (including micro ops) simulated (Count)
hostInstRate                                    19073                       # Simulator instruction rate (inst/s) ((Count/Second))
hostOpRate                                      30402                       # Simulator op (including micro ops) rate (op/s) ((Count/Second))
board.cache_hierarchy.ruby_system.delayHistogram::bucket_size         2048                       # delay histogram for all message (Unspecified)
board.cache_hierarchy.ruby_system.delayHistogram::max_bucket        20479                       # delay histogram for all message (Unspecified)
board.cache_hierarchy.ruby_system.delayHistogram::samples       213183                       # delay histogram for all message (Unspecified)
board.cache_hierarchy.ruby_system.delayHistogram::mean  2413.233044                       # delay histogram for all message (Unspecified)
board.cache_hierarchy.ruby_system.delayHistogram::stdev  5945.560531                       # delay histogram for all message (Unspecified)
board.cache_hierarchy.ruby_system.delayHistogram |      182683     85.69%     85.69% |         215      0.10%     85.79% |         229      0.11%     85.90% |          77      0.04%     85.94% |         208      0.10%     86.04% |         111      0.05%     86.09% |          50      0.02%     86.11% |        1821      0.85%     86.96% |       27688     12.99%     99.95% |         101      0.05%    100.00% # delay histogram for all message (Unspecified)
board.cache_hierarchy.ruby_system.delayHistogram::total       213183                       # delay histogram for all message (Unspecified)
board.cache_hierarchy.ruby_system.m_outstandReqHistSeqr::bucket_size            2                       (Unspecified)
board.cache_hierarchy.ruby_system.m_outstandReqHistSeqr::max_bucket           19                       (Unspecified)
board.cache_hierarchy.ruby_system.m_outstandReqHistSeqr::samples      1069681                       (Unspecified)
board.cache_hierarchy.ruby_system.m_outstandReqHistSeqr::mean     1.207617                       (Unspecified)
board.cache_hierarchy.ruby_system.m_outstandReqHistSeqr::gmean     1.146581                       (Unspecified)
board.cache_hierarchy.ruby_system.m_outstandReqHistSeqr::stdev     0.493067                       (Unspecified)
board.cache_hierarchy.ruby_system.m_outstandReqHistSeqr |      868803     81.22%     81.22% |      196138     18.34%     99.56% |        3930      0.37%     99.92% |         444      0.04%     99.97% |         191      0.02%     99.98% |          77      0.01%     99.99% |          41      0.00%     99.99% |          41      0.00%    100.00% |          16      0.00%    100.00% |           0      0.00%    100.00% (Unspecified)
board.cache_hierarchy.ruby_system.m_outstandReqHistSeqr::total      1069681                       (Unspecified)
board.cache_hierarchy.ruby_system.m_latencyHistSeqr::bucket_size          512                       (Unspecified)
board.cache_hierarchy.ruby_system.m_latencyHistSeqr::max_bucket         5119                       (Unspecified)
board.cache_hierarchy.ruby_system.m_latencyHistSeqr::samples      1070038                       (Unspecified)
board.cache_hierarchy.ruby_system.m_latencyHistSeqr::mean    75.373364                       (Unspecified)
board.cache_hierarchy.ruby_system.m_latencyHistSeqr::gmean     1.478811                       (Unspecified)
board.cache_hierarchy.ruby_system.m_latencyHistSeqr::stdev   409.607652                       (Unspecified)
board.cache_hierarchy.ruby_system.m_latencyHistSeqr |     1039342     97.13%     97.13% |         224      0.02%     97.15% |         350      0.03%     97.18% |         452      0.04%     97.23% |       29569      2.76%     99.99% |         101      0.01%    100.00% |           0      0.00%    100.00% |           0      0.00%    100.00% |           0      0.00%    100.00% |           0      0.00%    100.00% (Unspecified)
board.cache_hierarchy.ruby_system.m_latencyHistSeqr::total      1070038                       (Unspecified)
board.cache_hierarchy.ruby_system.m_hitLatencyHistSeqr::bucket_size           32                       (Unspecified)
board.cache_hierarchy.ruby_system.m_hitLatencyHistSeqr::max_bucket          319                       (Unspecified)
board.cache_hierarchy.ruby_system.m_hitLatencyHistSeqr::samples      1001174                       (Unspecified)
board.cache_hierarchy.ruby_system.m_hitLatencyHistSeqr::mean     1.004484                       (Unspecified)
board.cache_hierarchy.ruby_system.m_hitLatencyHistSeqr::gmean     1.000337                       (Unspecified)
board.cache_hierarchy.ruby_system.m_hitLatencyHistSeqr::stdev     1.057465                       (Unspecified)
board.cache_hierarchy.ruby_system.m_hitLatencyHistSeqr |     1001158    100.00%    100.00% |           0      0.00%    100.00% |           1      0.00%    100.00% |           1      0.00%    100.00% |           0      0.00%    100.00% |           0      0.00%    100.00% |           0      0.00%    100.00% |           0      0.00%    100.00% |          14      0.00%    100.00% |           0      0.00%    100.00% (Unspecified)
board.cache_hierarchy.ruby_system.m_hitLatencyHistSeqr::total      1001174                       (Unspecified)
board.cache_hierarchy.ruby_system.m_missLatencyHistSeqr::bucket_size          512                       (Unspecified)
board.cache_hierarchy.ruby_system.m_missLatencyHistSeqr::max_bucket         5119                       (Unspecified)
board.cache_hierarchy.ruby_system.m_missLatencyHistSeqr::samples        68864                       (Unspecified)
board.cache_hierarchy.ruby_system.m_missLatencyHistSeqr::mean  1156.579650                       (Unspecified)
board.cache_hierarchy.ruby_system.m_missLatencyHistSeqr::gmean   434.559688                       (Unspecified)
board.cache_hierarchy.ruby_system.m_missLatencyHistSeqr::stdev  1165.160152                       (Unspecified)
board.cache_hierarchy.ruby_system.m_missLatencyHistSeqr |       38168     55.43%     55.43% |         224      0.33%     55.75% |         350      0.51%     56.26% |         452      0.66%     56.92% |       29569     42.94%     99.85% |         101      0.15%    100.00% |           0      0.00%    100.00% |           0      0.00%    100.00% |           0      0.00%    100.00% |           0      0.00%    100.00% (Unspecified)
board.cache_hierarchy.ruby_system.m_missLatencyHistSeqr::total        68864                       (Unspecified)
board.cache_hierarchy.ruby_system.delayVCHist.vnet_0::bucket_size         2048                       # delay histogram for vnet_0 (Unspecified)
board.cache_hierarchy.ruby_system.delayVCHist.vnet_0::max_bucket        20479                       # delay histogram for vnet_0 (Unspecified)
board.cache_hierarchy.ruby_system.delayVCHist.vnet_0::samples       106081                       # delay histogram for vnet_0 (Unspecified)
board.cache_hierarchy.ruby_system.delayVCHist.vnet_0::mean  4849.507112                       # delay histogram for vnet_0 (Unspecified)
board.cache_hierarchy.ruby_system.delayVCHist.vnet_0::stdev  7695.814065                       # delay histogram for vnet_0 (Unspecified)
board.cache_hierarchy.ruby_system.delayVCHist.vnet_0 |       75581     71.25%     71.25% |         215      0.20%     71.45% |         229      0.22%     71.67% |          77      0.07%     71.74% |         208      0.20%     71.94% |         111      0.10%     72.04% |          50      0.05%     72.09% |        1821      1.72%     73.80% |       27688     26.10%     99.90% |         101      0.10%    100.00% # delay histogram for vnet_0 (Unspecified)
board.cache_hierarchy.ruby_system.delayVCHist.vnet_0::total       106081                       # delay histogram for vnet_0 (Unspecified)
board.cache_hierarchy.ruby_system.delayVCHist.vnet_1::bucket_size            4                       # delay histogram for vnet_1 (Unspecified)
board.cache_hierarchy.ruby_system.delayVCHist.vnet_1::max_bucket           39                       # delay histogram for vnet_1 (Unspecified)
board.cache_hierarchy.ruby_system.delayVCHist.vnet_1::samples        73309                       # delay histogram for vnet_1 (Unspecified)
board.cache_hierarchy.ruby_system.delayVCHist.vnet_1::mean     0.268644                       # delay histogram for vnet_1 (Unspecified)
board.cache_hierarchy.ruby_system.delayVCHist.vnet_1::stdev     1.463108                       # delay histogram for vnet_1 (Unspecified)
board.cache_hierarchy.ruby_system.delayVCHist.vnet_1 |       70844     96.64%     96.64% |         268      0.37%     97.00% |        2107      2.87%     99.88% |          48      0.07%     99.94% |          38      0.05%     99.99% |           2      0.00%    100.00% |           2      0.00%    100.00% |           0      0.00%    100.00% |           0      0.00%    100.00% |           0      0.00%    100.00% # delay histogram for vnet_1 (Unspecified)
board.cache_hierarchy.ruby_system.delayVCHist.vnet_1::total        73309                       # delay histogram for vnet_1 (Unspecified)
board.cache_hierarchy.ruby_system.delayVCHist.vnet_2::bucket_size            1                       # delay histogram for vnet_2 (Unspecified)
board.cache_hierarchy.ruby_system.delayVCHist.vnet_2::max_bucket            9                       # delay histogram for vnet_2 (Unspecified)
board.cache_hierarchy.ruby_system.delayVCHist.vnet_2::samples        33793                       # delay histogram for vnet_2 (Unspecified)
board.cache_hierarchy.ruby_system.delayVCHist.vnet_2::mean     0.000059                       # delay histogram for vnet_2 (Unspecified)
board.cache_hierarchy.ruby_system.delayVCHist.vnet_2::stdev     0.010880                       # delay histogram for vnet_2 (Unspecified)
board.cache_hierarchy.ruby_system.delayVCHist.vnet_2 |       33792    100.00%    100.00% |           0      0.00%    100.00% |           1      0.00%    100.00% |           0      0.00%    100.00% |           0      0.00%    100.00% |           0      0.00%    100.00% |           0      0.00%    100.00% |           0      0.00%    100.00% |           0      0.00%    100.00% |           0      0.00%    100.00% # delay histogram for vnet_2 (Unspecified)
board.cache_hierarchy.ruby_system.delayVCHist.vnet_2::total        33793                       # delay histogram for vnet_2 (Unspecified)
board.cache_hierarchy.ruby_system.Directory_Controller.Fetch         1191      0.00%      0.00% (Unspecified)
board.cache_hierarchy.ruby_system.Directory_Controller.Memory_Data         1191      0.00%      0.00% (Unspecified)
board.cache_hierarchy.ruby_system.Directory_Controller.I.Fetch         1191      0.00%      0.00% (Unspecified)
board.cache_hierarchy.ruby_system.Directory_Controller.IM.Memory_Data         1191      0.00%      0.00% (Unspecified)
board.cache_hierarchy.ruby_system.L1Cache_Controller.Load |       13341      5.31%      5.31% |       14858      5.92%     11.23% |       14871      5.92%     17.15% |       14862      5.92%     23.06% |       14860      5.92%     28.98% |       14868      5.92%     34.90% |       14856      5.91%     40.81% |       14882      5.92%     46.74% |       14863      5.92%     52.66% |       14880      5.92%     58.58% |       14867      5.92%     64.50% |       14857      5.92%     70.42% |       14863      5.92%     76.33% |       14870      5.92%     82.25% |       14850      5.91%     88.17% |       14865      5.92%     94.08% |       14861      5.92%    100.00% (Unspecified)
board.cache_hierarchy.ruby_system.L1Cache_Controller.Load::total       251174                       (Unspecified)
board.cache_hierarchy.ruby_system.L1Cache_Controller.Ifetch |       20686      3.71%      3.71% |       33500      6.01%      9.71% |       33666      6.03%     15.75% |       33644      6.03%     21.78% |       33582      6.02%     27.80% |       33617      6.03%     33.82% |       33535      6.01%     39.84% |       33578      6.02%     45.85% |       33595      6.02%     51.88% |       33594      6.02%     57.90% |       33550      6.01%     63.91% |       33553      6.01%     69.93% |       33551      6.01%     75.94% |       33545      6.01%     81.95% |       33523      6.01%     87.96% |       33619      6.03%     93.99% |       33525      6.01%    100.00% (Unspecified)
board.cache_hierarchy.ruby_system.L1Cache_Controller.Ifetch::total       557863                       (Unspecified)
board.cache_hierarchy.ruby_system.L1Cache_Controller.Store |       22822      8.74%      8.74% |       14793      5.67%     14.41% |       15095      5.78%     20.20% |       15094      5.78%     25.98% |       15087      5.78%     31.76% |       15085      5.78%     37.54% |       14793      5.67%     43.21% |       14796      5.67%     48.88% |       14798      5.67%     54.55% |       14794      5.67%     60.21% |       14793      5.67%     65.88% |       14793      5.67%     71.55% |       14793      5.67%     77.22% |       14793      5.67%     82.88% |       14793      5.67%     88.55% |       15085      5.78%     94.33% |       14793      5.67%    100.00% (Unspecified)
board.cache_hierarchy.ruby_system.L1Cache_Controller.Store::total       261000                       (Unspecified)
board.cache_hierarchy.ruby_system.L1Cache_Controller.Inv |          82     27.99%     27.99% |          10      3.41%     31.40% |          16      5.46%     36.86% |          16      5.46%     42.32% |          13      4.44%     46.76% |          16      5.46%     52.22% |          12      4.10%     56.31% |          11      3.75%     60.07% |          13      4.44%     64.51% |          13      4.44%     68.94% |          17      5.80%     74.74% |          21      7.17%     81.91% |          15      5.12%     87.03% |          14      4.78%     91.81% |          11      3.75%     95.56% |           3      1.02%     96.59% |          10      3.41%    100.00% (Unspecified)
board.cache_hierarchy.ruby_system.L1Cache_Controller.Inv::total          293                       (Unspecified)
board.cache_hierarchy.ruby_system.L1Cache_Controller.L1_Replacement |         855      3.19%      3.19% |        1609      6.01%      9.21% |        1639      6.12%     15.33% |        1639      6.12%     21.45% |        1639      6.12%     27.58% |        1641      6.13%     33.71% |        1609      6.01%     39.72% |        1612      6.02%     45.74% |        1611      6.02%     51.76% |        1613      6.03%     57.79% |        1612      6.02%     63.81% |        1610      6.02%     69.82% |        1609      6.01%     75.84% |        1610      6.02%     81.85% |        1609      6.01%     87.86% |        1640      6.13%     93.99% |        1609      6.01%    100.00% (Unspecified)
board.cache_hierarchy.ruby_system.L1Cache_Controller.L1_Replacement::total        26766                       (Unspecified)
board.cache_hierarchy.ruby_system.L1Cache_Controller.Fwd_GETX |          41      0.13%      0.13% |        2022      6.50%      6.63% |        2003      6.44%     13.06% |        1970      6.33%     19.39% |        1946      6.25%     25.65% |        1933      6.21%     31.86% |        1933      6.21%     38.07% |        1934      6.21%     44.28% |        1936      6.22%     50.50% |        1936      6.22%     56.72% |        1933      6.21%     62.93% |        1933      6.21%     69.14% |        1921      6.17%     75.31% |        1921      6.17%     81.49% |        1922      6.18%     87.66% |        1922      6.18%     93.84% |        1918      6.16%    100.00% (Unspecified)
board.cache_hierarchy.ruby_system.L1Cache_Controller.Fwd_GETX::total        31124                       (Unspecified)
board.cache_hierarchy.ruby_system.L1Cache_Controller.Fwd_GETS |         402     16.92%     16.92% |        1644     69.19%     86.11% |          20      0.84%     86.95% |          30      1.26%     88.22% |         149      6.27%     94.49% |          14      0.59%     95.08% |          13      0.55%     95.62% |          12      0.51%     96.13% |          14      0.59%     96.72% |          11      0.46%     97.18% |          12      0.51%     97.69% |          16      0.67%     98.36% |           8      0.34%     98.70% |           9      0.38%     99.07% |           9      0.38%     99.45% |           5      0.21%     99.66% |           8      0.34%    100.00% (Unspecified)
board.cache_hierarchy.ruby_system.L1Cache_Controller.Fwd_GETS::total         2376                       (Unspecified)
board.cache_hierarchy.ruby_system.L1Cache_Controller.Data |           0      0.00%      0.00% |           0      0.00%      0.00% |           0      0.00%      0.00% |           1     12.50%     12.50% |           0      0.00%     12.50% |           1     12.50%     25.00% |           0      0.00%     25.00% |           0      0.00%     25.00% |           0      0.00%     25.00% |           0      0.00%     25.00% |           1     12.50%     37.50% |           2     25.00%     62.50% |           1     12.50%     75.00% |           1     12.50%     87.50% |           0      0.00%     87.50% |           0      0.00%     87.50% |           1     12.50%    100.00% (Unspecified)
board.cache_hierarchy.ruby_system.L1Cache_Controller.Data::total            8                       (Unspecified)
board.cache_hierarchy.ruby_system.L1Cache_Controller.Data_Exclusive |          72      3.40%      3.40% |        1646     77.83%     81.23% |          21      0.99%     82.22% |          36      1.70%     83.92% |         155      7.33%     91.25% |          15      0.71%     91.96% |          17      0.80%     92.77% |          15      0.71%     93.48% |          17      0.80%     94.28% |          15      0.71%     94.99% |          16      0.76%     95.74% |          15      0.71%     96.45% |          15      0.71%     97.16% |          15      0.71%     97.87% |          15      0.71%     98.58% |          15      0.71%     99.29% |          15      0.71%    100.00% (Unspecified)
board.cache_hierarchy.ruby_system.L1Cache_Controller.Data_Exclusive::total         2115                       (Unspecified)
board.cache_hierarchy.ruby_system.L1Cache_Controller.DataS_fromL1 |          47      1.98%      1.98% |          27      1.14%      3.11% |        1188     50.00%     53.11% |          72      3.03%     56.14% |         831     34.97%     91.12% |          13      0.55%     91.67% |          14      0.59%     92.26% |          18      0.76%     93.01% |          18      0.76%     93.77% |          19      0.80%     94.57% |          20      0.84%     95.41% |          18      0.76%     96.17% |          21      0.88%     97.05% |          19      0.80%     97.85% |          17      0.72%     98.57% |          15      0.63%     99.20% |          19      0.80%    100.00% (Unspecified)
board.cache_hierarchy.ruby_system.L1Cache_Controller.DataS_fromL1::total         2376                       (Unspecified)
board.cache_hierarchy.ruby_system.L1Cache_Controller.Data_all_Acks |         771      1.20%      1.20% |        2613      4.07%      5.27% |        3120      4.86%     10.14% |        4187      6.53%     16.67% |        3282      5.12%     21.78% |        4231      6.60%     28.38% |        4169      6.50%     34.87% |        4176      6.51%     41.38% |        4176      6.51%     47.89% |        4177      6.51%     54.41% |        4172      6.50%     60.91% |        4173      6.50%     67.41% |        4167      6.50%     73.91% |        4173      6.50%     80.41% |        4173      6.50%     86.92% |        4227      6.59%     93.51% |        4165      6.49%    100.00% (Unspecified)
board.cache_hierarchy.ruby_system.L1Cache_Controller.Data_all_Acks::total        64152                       (Unspecified)
board.cache_hierarchy.ruby_system.L1Cache_Controller.Ack |          37     12.98%     12.98% |          16      5.61%     18.60% |          10      3.51%     22.11% |           8      2.81%     24.91% |          18      6.32%     31.23% |          12      4.21%     35.44% |          14      4.91%     40.35% |          13      4.56%     44.91% |          14      4.91%     49.82% |          15      5.26%     55.09% |          16      5.61%     60.70% |          19      6.67%     67.37% |          18      6.32%     73.68% |          19      6.67%     80.35% |          20      7.02%     87.37% |          22      7.72%     95.09% |          14      4.91%    100.00% (Unspecified)
board.cache_hierarchy.ruby_system.L1Cache_Controller.Ack::total          285                       (Unspecified)
board.cache_hierarchy.ruby_system.L1Cache_Controller.Ack_all |          32     14.48%     14.48% |          14      6.33%     20.81% |           7      3.17%     23.98% |           7      3.17%     27.15% |           9      4.07%     31.22% |           9      4.07%     35.29% |          12      5.43%     40.72% |          13      5.88%     46.61% |          13      5.88%     52.49% |          13      5.88%     58.37% |          13      5.88%     64.25% |          16      7.24%     71.49% |          13      5.88%     77.38% |          14      6.33%     83.71% |          14      6.33%     90.05% |           9      4.07%     94.12% |          13      5.88%    100.00% (Unspecified)
board.cache_hierarchy.ruby_system.L1Cache_Controller.Ack_all::total          221                       (Unspecified)
board.cache_hierarchy.ruby_system.L1Cache_Controller.WB_Ack |         362     61.88%     61.88% |          13      2.22%     64.10% |          14      2.39%     66.50% |          14      2.39%     68.89% |          14      2.39%     71.28% |          14      2.39%     73.68% |          14      2.39%     76.07% |          14      2.39%     78.46% |          14      2.39%     80.85% |          14      2.39%     83.25% |          14      2.39%     85.64% |          14      2.39%     88.03% |          14      2.39%     90.43% |          14      2.39%     92.82% |          14      2.39%     95.21% |          14      2.39%     97.61% |          14      2.39%    100.00% (Unspecified)
board.cache_hierarchy.ruby_system.L1Cache_Controller.WB_Ack::total          585                       (Unspecified)
board.cache_hierarchy.ruby_system.L1Cache_Controller.NP.Load |         127      0.38%      0.38% |        2093      6.23%      6.60% |        2090      6.22%     12.82% |        2090      6.22%     19.04% |        2090      6.22%     25.25% |        2091      6.22%     31.47% |        2094      6.23%     37.70% |        2095      6.23%     43.93% |        2096      6.23%     50.17% |        2096      6.23%     56.40% |        2096      6.23%     62.63% |        2095      6.23%     68.86% |        2094      6.23%     75.09% |        2095      6.23%     81.32% |        2094      6.23%     87.55% |        2091      6.22%     93.77% |        2094      6.23%    100.00% (Unspecified)
board.cache_hierarchy.ruby_system.L1Cache_Controller.NP.Load::total        33621                       (Unspecified)
board.cache_hierarchy.ruby_system.L1Cache_Controller.NP.Ifetch |         333     11.05%     11.05% |         157      5.21%     16.26% |         183      6.07%     22.34% |         184      6.11%     28.44% |         183      6.07%     34.52% |         185      6.14%     40.66% |         158      5.24%     45.90% |         165      5.48%     51.38% |         163      5.41%     56.79% |         164      5.44%     62.23% |         162      5.38%     67.61% |         158      5.24%     72.85% |         157      5.21%     78.06% |         160      5.31%     83.37% |         159      5.28%     88.65% |         183      6.07%     94.72% |         159      5.28%    100.00% (Unspecified)
board.cache_hierarchy.ruby_system.L1Cache_Controller.NP.Ifetch::total         3013                       (Unspecified)
board.cache_hierarchy.ruby_system.L1Cache_Controller.NP.Store |         395     39.50%     39.50% |          28      2.80%     42.30% |          61      6.10%     48.40% |          61      6.10%     54.50% |          61      6.10%     60.60% |          61      6.10%     66.70% |          27      2.70%     69.40% |          28      2.80%     72.20% |          27      2.70%     74.90% |          28      2.80%     77.70% |          27      2.70%     80.40% |          27      2.70%     83.10% |          27      2.70%     85.80% |          27      2.70%     88.50% |          27      2.70%     91.20% |          61      6.10%     97.30% |          27      2.70%    100.00% (Unspecified)
board.cache_hierarchy.ruby_system.L1Cache_Controller.NP.Store::total         1000                       (Unspecified)
board.cache_hierarchy.ruby_system.L1Cache_Controller.NP.Inv |          10    100.00%    100.00% |           0      0.00%    100.00% |           0      0.00%    100.00% |           0      0.00%    100.00% |           0      0.00%    100.00% |           0      0.00%    100.00% |           0      0.00%    100.00% |           0      0.00%    100.00% |           0      0.00%    100.00% |           0      0.00%    100.00% |           0      0.00%    100.00% |           0      0.00%    100.00% |           0      0.00%    100.00% |           0      0.00%    100.00% |           0      0.00%    100.00% |           0      0.00%    100.00% |           0      0.00%    100.00% (Unspecified)
board.cache_hierarchy.ruby_system.L1Cache_Controller.NP.Inv::total           10                       (Unspecified)
board.cache_hierarchy.ruby_system.L1Cache_Controller.I.Load |          30     34.09%     34.09% |           2      2.27%     36.36% |           3      3.41%     39.77% |           6      6.82%     46.59% |           6      6.82%     53.41% |           2      2.27%     55.68% |           1      1.14%     56.82% |           1      1.14%     57.95% |           2      2.27%     60.23% |           2      2.27%     62.50% |           4      4.55%     67.05% |           6      6.82%     73.86% |           6      6.82%     80.68% |           6      6.82%     87.50% |           5      5.68%     93.18% |           3      3.41%     96.59% |           3      3.41%    100.00% (Unspecified)
board.cache_hierarchy.ruby_system.L1Cache_Controller.I.Load::total           88                       (Unspecified)
board.cache_hierarchy.ruby_system.L1Cache_Controller.I.Store |           4      0.01%      0.01% |        2006      6.49%      6.50% |        1989      6.43%     12.93% |        1951      6.31%     19.24% |        1927      6.23%     25.48% |        1921      6.21%     31.69% |        1920      6.21%     37.90% |        1919      6.21%     44.11% |        1923      6.22%     50.33% |        1921      6.21%     56.54% |        1920      6.21%     62.75% |        1922      6.22%     68.96% |        1920      6.21%     75.17% |        1920      6.21%     81.38% |        1920      6.21%     87.59% |        1919      6.21%     93.80% |        1917      6.20%    100.00% (Unspecified)
board.cache_hierarchy.ruby_system.L1Cache_Controller.I.Store::total        30919                       (Unspecified)
board.cache_hierarchy.ruby_system.L1Cache_Controller.I.L1_Replacement |          57     95.00%     95.00% |           1      1.67%     96.67% |           0      0.00%     96.67% |           0      0.00%     96.67% |           0      0.00%     96.67% |           1      1.67%     98.33% |           0      0.00%     98.33% |           0      0.00%     98.33% |           0      0.00%     98.33% |           1      1.67%    100.00% |           0      0.00%    100.00% |           0      0.00%    100.00% |           0      0.00%    100.00% |           0      0.00%    100.00% |           0      0.00%    100.00% |           0      0.00%    100.00% |           0      0.00%    100.00% (Unspecified)
board.cache_hierarchy.ruby_system.L1Cache_Controller.I.L1_Replacement::total           60                       (Unspecified)
board.cache_hierarchy.ruby_system.L1Cache_Controller.S.Load |         237     16.06%     16.06% |          78      5.28%     21.34% |          81      5.49%     26.83% |          76      5.15%     31.98% |          69      4.67%     36.65% |          70      4.74%     41.40% |          72      4.88%     46.27% |          91      6.17%     52.44% |          87      5.89%     58.33% |          87      5.89%     64.23% |          92      6.23%     70.46% |          74      5.01%     75.47% |          73      4.95%     80.42% |          73      4.95%     85.37% |          82      5.56%     90.92% |          55      3.73%     94.65% |          79      5.35%    100.00% (Unspecified)
board.cache_hierarchy.ruby_system.L1Cache_Controller.S.Load::total         1476                       (Unspecified)
board.cache_hierarchy.ruby_system.L1Cache_Controller.S.Ifetch |       20353      3.67%      3.67% |       33343      6.01%      9.68% |       33483      6.03%     15.71% |       33460      6.03%     21.74% |       33399      6.02%     27.76% |       33432      6.03%     33.79% |       33377      6.02%     39.80% |       33413      6.02%     45.82% |       33432      6.03%     51.85% |       33430      6.03%     57.88% |       33388      6.02%     63.89% |       33395      6.02%     69.91% |       33394      6.02%     75.93% |       33385      6.02%     81.95% |       33364      6.01%     87.96% |       33436      6.03%     93.99% |       33366      6.01%    100.00% (Unspecified)
board.cache_hierarchy.ruby_system.L1Cache_Controller.S.Ifetch::total       554850                       (Unspecified)
board.cache_hierarchy.ruby_system.L1Cache_Controller.S.Store |          32     14.41%     14.41% |          14      6.31%     20.72% |          10      4.50%     25.23% |          10      4.50%     29.73% |          10      4.50%     34.23% |           8      3.60%     37.84% |          12      5.41%     43.24% |          14      6.31%     49.55% |          13      5.86%     55.41% |          13      5.86%     61.26% |          12      5.41%     66.67% |          14      6.31%     72.97% |          12      5.41%     78.38% |          13      5.86%     84.23% |          14      6.31%     90.54% |           9      4.05%     94.59% |          12      5.41%    100.00% (Unspecified)
board.cache_hierarchy.ruby_system.L1Cache_Controller.S.Store::total          222                       (Unspecified)
board.cache_hierarchy.ruby_system.L1Cache_Controller.S.Inv |          72     26.37%     26.37% |          10      3.66%     30.04% |          13      4.76%     34.80% |          12      4.40%     39.19% |          12      4.40%     43.59% |          16      5.86%     49.45% |          12      4.40%     53.85% |          10      3.66%     57.51% |          13      4.76%     62.27% |          13      4.76%     67.03% |          17      6.23%     73.26% |          21      7.69%     80.95% |          15      5.49%     86.45% |          14      5.13%     91.58% |          11      4.03%     95.60% |           3      1.10%     96.70% |           9      3.30%    100.00% (Unspecified)
board.cache_hierarchy.ruby_system.L1Cache_Controller.S.Inv::total          273                       (Unspecified)
board.cache_hierarchy.ruby_system.L1Cache_Controller.S.L1_Replacement |         436      1.67%      1.67% |        1595      6.11%      7.78% |        1625      6.22%     14.00% |        1625      6.22%     20.22% |        1625      6.22%     26.44% |        1626      6.22%     32.66% |        1595      6.11%     38.77% |        1598      6.12%     44.89% |        1597      6.11%     51.00% |        1598      6.12%     57.12% |        1598      6.12%     63.24% |        1596      6.11%     69.35% |        1595      6.11%     75.45% |        1596      6.11%     81.56% |        1595      6.11%     87.67% |        1626      6.22%     93.89% |        1595      6.11%    100.00% (Unspecified)
board.cache_hierarchy.ruby_system.L1Cache_Controller.S.L1_Replacement::total        26121                       (Unspecified)
board.cache_hierarchy.ruby_system.L1Cache_Controller.E.Load |        1584     91.72%     91.72% |           8      0.46%     92.18% |          10      0.58%     92.76% |          10      0.58%     93.34% |          10      0.58%     93.92% |           9      0.52%     94.44% |          12      0.69%     95.14% |           8      0.46%     95.60% |           8      0.46%     96.06% |           8      0.46%     96.53% |           8      0.46%     96.99% |           9      0.52%     97.51% |           9      0.52%     98.03% |           8      0.46%     98.49% |           9      0.52%     99.02% |           9      0.52%     99.54% |           8      0.46%    100.00% (Unspecified)
board.cache_hierarchy.ruby_system.L1Cache_Controller.E.Load::total         1727                       (Unspecified)
board.cache_hierarchy.ruby_system.L1Cache_Controller.E.Store |          18     10.47%     10.47% |           8      4.65%     15.12% |          10      5.81%     20.93% |          10      5.81%     26.74% |          10      5.81%     32.56% |          10      5.81%     38.37% |          10      5.81%     44.19% |           9      5.23%     49.42% |           9      5.23%     54.65% |           9      5.23%     59.88% |          10      5.81%     65.70% |          10      5.81%     71.51% |          10      5.81%     77.33% |          10      5.81%     83.14% |          10      5.81%     88.95% |           9      5.23%     94.19% |          10      5.81%    100.00% (Unspecified)
board.cache_hierarchy.ruby_system.L1Cache_Controller.E.Store::total          172                       (Unspecified)
board.cache_hierarchy.ruby_system.L1Cache_Controller.E.L1_Replacement |          10     38.46%     38.46% |           1      3.85%     42.31% |           1      3.85%     46.15% |           1      3.85%     50.00% |           1      3.85%     53.85% |           1      3.85%     57.69% |           1      3.85%     61.54% |           1      3.85%     65.38% |           1      3.85%     69.23% |           1      3.85%     73.08% |           1      3.85%     76.92% |           1      3.85%     80.77% |           1      3.85%     84.62% |           1      3.85%     88.46% |           1      3.85%     92.31% |           1      3.85%     96.15% |           1      3.85%    100.00% (Unspecified)
board.cache_hierarchy.ruby_system.L1Cache_Controller.E.L1_Replacement::total           26                       (Unspecified)
board.cache_hierarchy.ruby_system.L1Cache_Controller.E.Fwd_GETS |           6      0.33%      0.33% |        1634     89.49%     89.81% |           7      0.38%     90.20% |          22      1.20%     91.40% |         141      7.72%     99.12% |           1      0.05%     99.18% |           2      0.11%     99.29% |           1      0.05%     99.34% |           3      0.16%     99.51% |           1      0.05%     99.56% |           1      0.05%     99.62% |           1      0.05%     99.67% |           1      0.05%     99.73% |           1      0.05%     99.78% |           1      0.05%     99.84% |           2      0.11%     99.95% |           1      0.05%    100.00% (Unspecified)
board.cache_hierarchy.ruby_system.L1Cache_Controller.E.Fwd_GETS::total         1826                       (Unspecified)
board.cache_hierarchy.ruby_system.L1Cache_Controller.M.Load |       11363      5.30%      5.30% |       12677      5.92%     11.22% |       12687      5.92%     17.14% |       12680      5.92%     23.06% |       12685      5.92%     28.98% |       12696      5.93%     34.90% |       12677      5.92%     40.82% |       12687      5.92%     46.74% |       12670      5.91%     52.66% |       12687      5.92%     58.58% |       12667      5.91%     64.49% |       12673      5.91%     70.40% |       12681      5.92%     76.32% |       12688      5.92%     82.24% |       12660      5.91%     88.15% |       12707      5.93%     94.08% |       12677      5.92%    100.00% (Unspecified)
board.cache_hierarchy.ruby_system.L1Cache_Controller.M.Load::total       214262                       (Unspecified)
board.cache_hierarchy.ruby_system.L1Cache_Controller.M.Store |       22373      9.78%      9.78% |       12737      5.57%     15.35% |       13025      5.70%     21.05% |       13062      5.71%     26.76% |       13079      5.72%     32.48% |       13085      5.72%     38.20% |       12824      5.61%     43.81% |       12826      5.61%     49.42% |       12826      5.61%     55.03% |       12823      5.61%     60.63% |       12824      5.61%     66.24% |       12820      5.61%     71.85% |       12824      5.61%     77.45% |       12823      5.61%     83.06% |       12822      5.61%     88.67% |       13087      5.72%     94.39% |       12827      5.61%    100.00% (Unspecified)
board.cache_hierarchy.ruby_system.L1Cache_Controller.M.Store::total       228687                       (Unspecified)
board.cache_hierarchy.ruby_system.L1Cache_Controller.M.L1_Replacement |         352     62.97%     62.97% |          12      2.15%     65.12% |          13      2.33%     67.44% |          13      2.33%     69.77% |          13      2.33%     72.09% |          13      2.33%     74.42% |          13      2.33%     76.74% |          13      2.33%     79.07% |          13      2.33%     81.40% |          13      2.33%     83.72% |          13      2.33%     86.05% |          13      2.33%     88.37% |          13      2.33%     90.70% |          13      2.33%     93.02% |          13      2.33%     95.35% |          13      2.33%     97.67% |          13      2.33%    100.00% (Unspecified)
board.cache_hierarchy.ruby_system.L1Cache_Controller.M.L1_Replacement::total          559                       (Unspecified)
board.cache_hierarchy.ruby_system.L1Cache_Controller.M.Fwd_GETX |          41      0.13%      0.13% |        2022      6.50%      6.63% |        2003      6.44%     13.06% |        1970      6.33%     19.39% |        1946      6.25%     25.65% |        1933      6.21%     31.86% |        1933      6.21%     38.07% |        1934      6.21%     44.28% |        1936      6.22%     50.50% |        1936      6.22%     56.72% |        1933      6.21%     62.93% |        1933      6.21%     69.14% |        1921      6.17%     75.31% |        1921      6.17%     81.49% |        1922      6.18%     87.66% |        1922      6.18%     93.84% |        1918      6.16%    100.00% (Unspecified)
board.cache_hierarchy.ruby_system.L1Cache_Controller.M.Fwd_GETX::total        31124                       (Unspecified)
board.cache_hierarchy.ruby_system.L1Cache_Controller.M.Fwd_GETS |         396     72.00%     72.00% |          10      1.82%     73.82% |          13      2.36%     76.18% |           8      1.45%     77.64% |           8      1.45%     79.09% |          13      2.36%     81.45% |          11      2.00%     83.45% |          11      2.00%     85.45% |          11      2.00%     87.45% |          10      1.82%     89.27% |          11      2.00%     91.27% |          15      2.73%     94.00% |           7      1.27%     95.27% |           8      1.45%     96.73% |           8      1.45%     98.18% |           3      0.55%     98.73% |           7      1.27%    100.00% (Unspecified)
board.cache_hierarchy.ruby_system.L1Cache_Controller.M.Fwd_GETS::total          550                       (Unspecified)
board.cache_hierarchy.ruby_system.L1Cache_Controller.IS.Inv |           0      0.00%      0.00% |           0      0.00%      0.00% |           0      0.00%      0.00% |           0      0.00%      0.00% |           0      0.00%      0.00% |           0      0.00%      0.00% |           0      0.00%      0.00% |           0      0.00%      0.00% |           0      0.00%      0.00% |           0      0.00%      0.00% |           0      0.00%      0.00% |           0      0.00%      0.00% |           0      0.00%      0.00% |           0      0.00%      0.00% |           0      0.00%      0.00% |           0      0.00%      0.00% |           1    100.00%    100.00% (Unspecified)
board.cache_hierarchy.ruby_system.L1Cache_Controller.IS.Inv::total            1                       (Unspecified)
board.cache_hierarchy.ruby_system.L1Cache_Controller.IS.Data_Exclusive |          72      3.40%      3.40% |        1646     77.83%     81.23% |          21      0.99%     82.22% |          36      1.70%     83.92% |         155      7.33%     91.25% |          15      0.71%     91.96% |          17      0.80%     92.77% |          15      0.71%     93.48% |          17      0.80%     94.28% |          15      0.71%     94.99% |          16      0.76%     95.74% |          15      0.71%     96.45% |          15      0.71%     97.16% |          15      0.71%     97.87% |          15      0.71%     98.58% |          15      0.71%     99.29% |          15      0.71%    100.00% (Unspecified)
board.cache_hierarchy.ruby_system.L1Cache_Controller.IS.Data_Exclusive::total         2115                       (Unspecified)
board.cache_hierarchy.ruby_system.L1Cache_Controller.IS.DataS_fromL1 |          47      1.98%      1.98% |          27      1.14%      3.11% |        1188     50.00%     53.11% |          72      3.03%     56.14% |         831     34.97%     91.12% |          13      0.55%     91.67% |          14      0.59%     92.26% |          18      0.76%     93.01% |          18      0.76%     93.77% |          19      0.80%     94.57% |          20      0.84%     95.41% |          18      0.76%     96.17% |          21      0.88%     97.05% |          19      0.80%     97.85% |          17      0.72%     98.57% |          15      0.63%     99.20% |          19      0.80%    100.00% (Unspecified)
board.cache_hierarchy.ruby_system.L1Cache_Controller.IS.DataS_fromL1::total         2376                       (Unspecified)
board.cache_hierarchy.ruby_system.L1Cache_Controller.IS.Data_all_Acks |         372      1.15%      1.15% |         579      1.80%      2.95% |        1067      3.31%      6.26% |        2172      6.74%     13.00% |        1293      4.01%     17.01% |        2250      6.98%     23.99% |        2222      6.89%     30.89% |        2228      6.91%     37.80% |        2226      6.91%     44.71% |        2228      6.91%     51.62% |        2226      6.91%     58.52% |        2226      6.91%     65.43% |        2221      6.89%     72.32% |        2227      6.91%     79.23% |        2226      6.91%     86.14% |        2247      6.97%     93.11% |        2221      6.89%    100.00% (Unspecified)
board.cache_hierarchy.ruby_system.L1Cache_Controller.IS.Data_all_Acks::total        32231                       (Unspecified)
board.cache_hierarchy.ruby_system.L1Cache_Controller.IM.Data |           0      0.00%      0.00% |           0      0.00%      0.00% |           0      0.00%      0.00% |           1     12.50%     12.50% |           0      0.00%     12.50% |           1     12.50%     25.00% |           0      0.00%     25.00% |           0      0.00%     25.00% |           0      0.00%     25.00% |           0      0.00%     25.00% |           1     12.50%     37.50% |           2     25.00%     62.50% |           1     12.50%     75.00% |           1     12.50%     87.50% |           0      0.00%     87.50% |           0      0.00%     87.50% |           1     12.50%    100.00% (Unspecified)
board.cache_hierarchy.ruby_system.L1Cache_Controller.IM.Data::total            8                       (Unspecified)
board.cache_hierarchy.ruby_system.L1Cache_Controller.IM.Data_all_Acks |         399      1.25%      1.25% |        2034      6.37%      7.62% |        2053      6.43%     14.05% |        2015      6.31%     20.37% |        1989      6.23%     26.60% |        1981      6.21%     32.80% |        1947      6.10%     38.90% |        1948      6.10%     45.01% |        1950      6.11%     51.12% |        1949      6.11%     57.22% |        1946      6.10%     63.32% |        1947      6.10%     69.42% |        1946      6.10%     75.51% |        1946      6.10%     81.61% |        1947      6.10%     87.71% |        1980      6.20%     93.91% |        1943      6.09%    100.00% (Unspecified)
board.cache_hierarchy.ruby_system.L1Cache_Controller.IM.Data_all_Acks::total        31920                       (Unspecified)
board.cache_hierarchy.ruby_system.L1Cache_Controller.SM.Inv |           0      0.00%      0.00% |           0      0.00%      0.00% |           3     33.33%     33.33% |           4     44.44%     77.78% |           1     11.11%     88.89% |           0      0.00%     88.89% |           0      0.00%     88.89% |           1     11.11%    100.00% |           0      0.00%    100.00% |           0      0.00%    100.00% |           0      0.00%    100.00% |           0      0.00%    100.00% |           0      0.00%    100.00% |           0      0.00%    100.00% |           0      0.00%    100.00% |           0      0.00%    100.00% |           0      0.00%    100.00% (Unspecified)
board.cache_hierarchy.ruby_system.L1Cache_Controller.SM.Inv::total            9                       (Unspecified)
board.cache_hierarchy.ruby_system.L1Cache_Controller.SM.Ack |          37     12.98%     12.98% |          16      5.61%     18.60% |          10      3.51%     22.11% |           8      2.81%     24.91% |          18      6.32%     31.23% |          12      4.21%     35.44% |          14      4.91%     40.35% |          13      4.56%     44.91% |          14      4.91%     49.82% |          15      5.26%     55.09% |          16      5.61%     60.70% |          19      6.67%     67.37% |          18      6.32%     73.68% |          19      6.67%     80.35% |          20      7.02%     87.37% |          22      7.72%     95.09% |          14      4.91%    100.00% (Unspecified)
board.cache_hierarchy.ruby_system.L1Cache_Controller.SM.Ack::total          285                       (Unspecified)
board.cache_hierarchy.ruby_system.L1Cache_Controller.SM.Ack_all |          32     14.48%     14.48% |          14      6.33%     20.81% |           7      3.17%     23.98% |           7      3.17%     27.15% |           9      4.07%     31.22% |           9      4.07%     35.29% |          12      5.43%     40.72% |          13      5.88%     46.61% |          13      5.88%     52.49% |          13      5.88%     58.37% |          13      5.88%     64.25% |          16      7.24%     71.49% |          13      5.88%     77.38% |          14      6.33%     83.71% |          14      6.33%     90.05% |           9      4.07%     94.12% |          13      5.88%    100.00% (Unspecified)
board.cache_hierarchy.ruby_system.L1Cache_Controller.SM.Ack_all::total          221                       (Unspecified)
board.cache_hierarchy.ruby_system.L1Cache_Controller.IS_I.Data_all_Acks |           0      0.00%      0.00% |           0      0.00%      0.00% |           0      0.00%      0.00% |           0      0.00%      0.00% |           0      0.00%      0.00% |           0      0.00%      0.00% |           0      0.00%      0.00% |           0      0.00%      0.00% |           0      0.00%      0.00% |           0      0.00%      0.00% |           0      0.00%      0.00% |           0      0.00%      0.00% |           0      0.00%      0.00% |           0      0.00%      0.00% |           0      0.00%      0.00% |           0      0.00%      0.00% |           1    100.00%    100.00% (Unspecified)
board.cache_hierarchy.ruby_system.L1Cache_Controller.IS_I.Data_all_Acks::total            1                       (Unspecified)
board.cache_hierarchy.ruby_system.L1Cache_Controller.M_I.WB_Ack |         362     61.88%     61.88% |          13      2.22%     64.10% |          14      2.39%     66.50% |          14      2.39%     68.89% |          14      2.39%     71.28% |          14      2.39%     73.68% |          14      2.39%     76.07% |          14      2.39%     78.46% |          14      2.39%     80.85% |          14      2.39%     83.25% |          14      2.39%     85.64% |          14      2.39%     88.03% |          14      2.39%     90.43% |          14      2.39%     92.82% |          14      2.39%     95.21% |          14      2.39%     97.61% |          14      2.39%    100.00% (Unspecified)
board.cache_hierarchy.ruby_system.L1Cache_Controller.M_I.WB_Ack::total          585                       (Unspecified)
board.cache_hierarchy.ruby_system.L2Cache_Controller.L1_GET_INSTR |         139      4.61%      4.61% |         168      5.57%     10.19% |         222      7.37%     17.55% |         249      8.26%     25.81% |         217      7.20%     33.01% |         177      5.87%     38.89% |         205      6.80%     45.69% |         171      5.67%     51.36% |         220      7.30%     58.66% |         202      6.70%     65.36% |         194      6.44%     71.80% |         194      6.44%     78.23% |         200      6.64%     84.87% |         188      6.24%     91.11% |         156      5.18%     96.28% |         112      3.72%    100.00% (Unspecified)
board.cache_hierarchy.ruby_system.L2Cache_Controller.L1_GET_INSTR::total         3014                       (Unspecified)
board.cache_hierarchy.ruby_system.L2Cache_Controller.L1_GETS |        2068      6.12%      6.12% |        2160      6.39%     12.52% |        2166      6.41%     18.93% |        2139      6.33%     25.26% |        2118      6.27%     31.53% |        2123      6.29%     37.82% |        2109      6.24%     44.06% |        2079      6.16%     50.22% |        2078      6.15%     56.37% |        2126      6.29%     62.66% |        2172      6.43%     69.09% |        2053      6.08%     75.17% |        2085      6.17%     81.35% |        2080      6.16%     87.50% |        2119      6.27%     93.78% |        2102      6.22%    100.00% (Unspecified)
board.cache_hierarchy.ruby_system.L2Cache_Controller.L1_GETS::total        33777                       (Unspecified)
board.cache_hierarchy.ruby_system.L2Cache_Controller.L1_GETX |      453950     99.78%     99.78% |          59      0.01%     99.80% |          55      0.01%     99.81% |          56      0.01%     99.82% |         102      0.02%     99.84% |         117      0.03%     99.87% |          77      0.02%     99.89% |          82      0.02%     99.90% |          82      0.02%     99.92% |          49      0.01%     99.93% |          77      0.02%     99.95% |          34      0.01%     99.96% |          66      0.01%     99.97% |          65      0.01%     99.99% |          33      0.01%     99.99% |          32      0.01%    100.00% (Unspecified)
board.cache_hierarchy.ruby_system.L2Cache_Controller.L1_GETX::total       454936                       (Unspecified)
board.cache_hierarchy.ruby_system.L2Cache_Controller.L1_UPGRADE |           1      0.44%      0.44% |          55     24.44%     24.89% |          27     12.00%     36.89% |          13      5.78%     42.67% |           7      3.11%     45.78% |          33     14.67%     60.44% |           5      2.22%     62.67% |           5      2.22%     64.89% |           2      0.89%     65.78% |           2      0.89%     66.67% |          41     18.22%     84.89% |           0      0.00%     84.89% |          13      5.78%     90.67% |           3      1.33%     92.00% |          17      7.56%     99.56% |           1      0.44%    100.00% (Unspecified)
board.cache_hierarchy.ruby_system.L2Cache_Controller.L1_UPGRADE::total          225                       (Unspecified)
board.cache_hierarchy.ruby_system.L2Cache_Controller.L1_PUTX |          24      4.10%      4.10% |          54      9.23%     13.33% |          31      5.30%     18.63% |          47      8.03%     26.67% |          62     10.60%     37.26% |          63     10.77%     48.03% |          46      7.86%     55.90% |          47      8.03%     63.93% |          47      8.03%     71.97% |          31      5.30%     77.26% |          31      5.30%     82.56% |          11      1.88%     84.44% |          29      4.96%     89.40% |          39      6.67%     96.07% |          15      2.56%     98.63% |           8      1.37%    100.00% (Unspecified)
board.cache_hierarchy.ruby_system.L2Cache_Controller.L1_PUTX::total          585                       (Unspecified)
board.cache_hierarchy.ruby_system.L2Cache_Controller.Mem_Data |          62      5.21%      5.21% |          76      6.38%     11.59% |          80      6.72%     18.30% |          82      6.88%     25.19% |          96      8.06%     33.25% |          97      8.14%     41.39% |          75      6.30%     47.69% |          72      6.05%     53.74% |          75      6.30%     60.03% |          79      6.63%     66.67% |          63      5.29%     71.96% |          45      3.78%     75.73% |          67      5.63%     81.36% |          81      6.80%     88.16% |          70      5.88%     94.04% |          71      5.96%    100.00% (Unspecified)
board.cache_hierarchy.ruby_system.L2Cache_Controller.Mem_Data::total         1191                       (Unspecified)
board.cache_hierarchy.ruby_system.L2Cache_Controller.WB_Data |          23      4.18%      4.18% |          79     14.36%     18.55% |          59     10.73%     29.27% |          29      5.27%     34.55% |          26      4.73%     39.27% |          57     10.36%     49.64% |          20      3.64%     53.27% |          21      3.82%     57.09% |          20      3.64%     60.73% |          38      6.91%     67.64% |          54      9.82%     77.45% |          19      3.45%     80.91% |          28      5.09%     86.00% |          18      3.27%     89.27% |          34      6.18%     95.45% |          25      4.55%    100.00% (Unspecified)
board.cache_hierarchy.ruby_system.L2Cache_Controller.WB_Data::total          550                       (Unspecified)
board.cache_hierarchy.ruby_system.L2Cache_Controller.WB_Data_clean |         108      5.91%      5.91% |         113      6.19%     12.10% |         114      6.24%     18.35% |         130      7.12%     25.47% |         114      6.24%     31.71% |         118      6.46%     38.17% |         116      6.35%     44.52% |         113      6.19%     50.71% |         113      6.19%     56.90% |         112      6.13%     63.03% |         114      6.24%     69.28% |         109      5.97%     75.25% |         114      6.24%     81.49% |         116      6.35%     87.84% |         115      6.30%     94.14% |         107      5.86%    100.00% (Unspecified)
board.cache_hierarchy.ruby_system.L2Cache_Controller.WB_Data_clean::total         1826                       (Unspecified)
board.cache_hierarchy.ruby_system.L2Cache_Controller.Unblock |         131      5.51%      5.51% |         192      8.08%     13.59% |         173      7.28%     20.88% |         159      6.69%     27.57% |         140      5.89%     33.46% |         175      7.37%     40.82% |         136      5.72%     46.55% |         134      5.64%     52.19% |         133      5.60%     57.79% |         150      6.31%     64.10% |         168      7.07%     71.17% |         128      5.39%     76.56% |         142      5.98%     82.53% |         134      5.64%     88.17% |         149      6.27%     94.44% |         132      5.56%    100.00% (Unspecified)
board.cache_hierarchy.ruby_system.L2Cache_Controller.Unblock::total         2376                       (Unspecified)
board.cache_hierarchy.ruby_system.L2Cache_Controller.Exclusive_Unblock |       31081     90.73%     90.73% |         257      0.75%     91.48% |         214      0.62%     92.11% |         216      0.63%     92.74% |         258      0.75%     93.49% |         287      0.84%     94.33% |         221      0.65%     94.97% |         220      0.64%     95.62% |         218      0.64%     96.25% |         183      0.53%     96.79% |         223      0.65%     97.44% |         147      0.43%     97.87% |         199      0.58%     98.45% |         191      0.56%     99.00% |         182      0.53%     99.54% |         159      0.46%    100.00% (Unspecified)
board.cache_hierarchy.ruby_system.L2Cache_Controller.Exclusive_Unblock::total        34256                       (Unspecified)
board.cache_hierarchy.ruby_system.L2Cache_Controller.NP.L1_GET_INSTR |          25      6.56%      6.56% |          25      6.56%     13.12% |          26      6.82%     19.95% |          28      7.35%     27.30% |          26      6.82%     34.12% |          25      6.56%     40.68% |          19      4.99%     45.67% |          18      4.72%     50.39% |          20      5.25%     55.64% |          25      6.56%     62.20% |          24      6.30%     68.50% |          22      5.77%     74.28% |          27      7.09%     81.36% |          27      7.09%     88.45% |          22      5.77%     94.23% |          22      5.77%    100.00% (Unspecified)
board.cache_hierarchy.ruby_system.L2Cache_Controller.NP.L1_GET_INSTR::total          381                       (Unspecified)
board.cache_hierarchy.ruby_system.L2Cache_Controller.NP.L1_GETS |           0      0.00%      0.00% |           2      2.67%      2.67% |           0      0.00%      2.67% |           0      0.00%      2.67% |          16     21.33%     24.00% |           1      1.33%     25.33% |           2      2.67%     28.00% |           0      0.00%     28.00% |           1      1.33%     29.33% |          17     22.67%     52.00% |           2      2.67%     54.67% |           1      1.33%     56.00% |           1      1.33%     57.33% |           0      0.00%     57.33% |          15     20.00%     77.33% |          17     22.67%    100.00% (Unspecified)
board.cache_hierarchy.ruby_system.L2Cache_Controller.NP.L1_GETS::total           75                       (Unspecified)
board.cache_hierarchy.ruby_system.L2Cache_Controller.NP.L1_GETX |          37      5.03%      5.03% |          49      6.67%     11.70% |          54      7.35%     19.05% |          54      7.35%     26.39% |          54      7.35%     33.74% |          71      9.66%     43.40% |          54      7.35%     50.75% |          54      7.35%     58.10% |          54      7.35%     65.44% |          37      5.03%     70.48% |          37      5.03%     75.51% |          22      2.99%     78.50% |          39      5.31%     83.81% |          54      7.35%     91.16% |          33      4.49%     95.65% |          32      4.35%    100.00% (Unspecified)
board.cache_hierarchy.ruby_system.L2Cache_Controller.NP.L1_GETX::total          735                       (Unspecified)
board.cache_hierarchy.ruby_system.L2Cache_Controller.SS.L1_GET_INSTR |         108      4.30%      4.30% |         139      5.54%      9.84% |         187      7.45%     17.28% |         209      8.32%     25.61% |         179      7.13%     32.74% |         145      5.77%     38.51% |         177      7.05%     45.56% |         144      5.73%     51.29% |         195      7.77%     59.06% |         172      6.85%     65.91% |         164      6.53%     72.44% |         166      6.61%     79.05% |         163      6.49%     85.54% |         153      6.09%     91.64% |         128      5.10%     96.73% |          82      3.27%    100.00% (Unspecified)
board.cache_hierarchy.ruby_system.L2Cache_Controller.SS.L1_GET_INSTR::total         2511                       (Unspecified)
board.cache_hierarchy.ruby_system.L2Cache_Controller.SS.L1_GETS |        1812      6.20%      6.20% |        1816      6.22%     12.42% |        1828      6.26%     18.67% |        1833      6.27%     24.95% |        1826      6.25%     31.20% |        1806      6.18%     37.38% |        1834      6.28%     43.65% |        1812      6.20%     49.86% |        1811      6.20%     56.05% |        1842      6.30%     62.36% |        1860      6.37%     68.72% |        1812      6.20%     74.93% |        1823      6.24%     81.17% |        1822      6.24%     87.40% |        1838      6.29%     93.69% |        1843      6.31%    100.00% (Unspecified)
board.cache_hierarchy.ruby_system.L2Cache_Controller.SS.L1_GETS::total        29218                       (Unspecified)
board.cache_hierarchy.ruby_system.L2Cache_Controller.SS.L1_GETX |           0      0.00%      0.00% |           0      0.00%      0.00% |           0      0.00%      0.00% |           0      0.00%      0.00% |           3     37.50%     37.50% |           0      0.00%     37.50% |           0      0.00%     37.50% |           0      0.00%     37.50% |           0      0.00%     37.50% |           0      0.00%     37.50% |           5     62.50%    100.00% |           0      0.00%    100.00% |           0      0.00%    100.00% |           0      0.00%    100.00% |           0      0.00%    100.00% |           0      0.00%    100.00% (Unspecified)
board.cache_hierarchy.ruby_system.L2Cache_Controller.SS.L1_GETX::total            8                       (Unspecified)
board.cache_hierarchy.ruby_system.L2Cache_Controller.SS.L1_UPGRADE |           1      0.47%      0.47% |          53     24.88%     25.35% |          27     12.68%     38.03% |          13      6.10%     44.13% |           7      3.29%     47.42% |          31     14.55%     61.97% |           5      2.35%     64.32% |           5      2.35%     66.67% |           2      0.94%     67.61% |           2      0.94%     68.54% |          33     15.49%     84.04% |           0      0.00%     84.04% |          13      6.10%     90.14% |           3      1.41%     91.55% |          17      7.98%     99.53% |           1      0.47%    100.00% (Unspecified)
board.cache_hierarchy.ruby_system.L2Cache_Controller.SS.L1_UPGRADE::total          213                       (Unspecified)
board.cache_hierarchy.ruby_system.L2Cache_Controller.M.L1_GETS |         125      6.13%      6.13% |         145      7.11%     13.24% |         132      6.47%     19.71% |         147      7.21%     26.91% |         136      6.67%     33.58% |         139      6.81%     40.39% |         137      6.72%     47.11% |         133      6.52%     53.63% |         133      6.52%     60.15% |         115      5.64%     65.78% |         118      5.78%     71.57% |         112      5.49%     77.06% |         119      5.83%     82.89% |         123      6.03%     88.92% |         117      5.74%     94.66% |         109      5.34%    100.00% (Unspecified)
board.cache_hierarchy.ruby_system.L2Cache_Controller.M.L1_GETS::total         2040                       (Unspecified)
board.cache_hierarchy.ruby_system.L2Cache_Controller.M.L1_GETX |           2      3.28%      3.28% |           1      1.64%      4.92% |           1      1.64%      6.56% |           2      3.28%      9.84% |          20     32.79%     42.62% |          16     26.23%     68.85% |           1      1.64%     70.49% |           1      1.64%     72.13% |           1      1.64%     73.77% |           1      1.64%     75.41% |           1      1.64%     77.05% |           1      1.64%     78.69% |          13     21.31%    100.00% |           0      0.00%    100.00% |           0      0.00%    100.00% |           0      0.00%    100.00% (Unspecified)
board.cache_hierarchy.ruby_system.L2Cache_Controller.M.L1_GETX::total           61                       (Unspecified)
board.cache_hierarchy.ruby_system.L2Cache_Controller.MT.L1_GETS |         131      5.51%      5.51% |         192      8.08%     13.59% |         173      7.28%     20.88% |         159      6.69%     27.57% |         140      5.89%     33.46% |         175      7.37%     40.82% |         136      5.72%     46.55% |         134      5.64%     52.19% |         133      5.60%     57.79% |         150      6.31%     64.10% |         168      7.07%     71.17% |         128      5.39%     76.56% |         142      5.98%     82.53% |         134      5.64%     88.17% |         149      6.27%     94.44% |         132      5.56%    100.00% (Unspecified)
board.cache_hierarchy.ruby_system.L2Cache_Controller.MT.L1_GETS::total         2376                       (Unspecified)
board.cache_hierarchy.ruby_system.L2Cache_Controller.MT.L1_GETX |       30916     99.33%     99.33% |           7      0.02%     99.35% |           0      0.00%     99.35% |           0      0.00%     99.35% |          22      0.07%     99.42% |          29      0.09%     99.52% |          22      0.07%     99.59% |          27      0.09%     99.68% |          27      0.09%     99.76% |          11      0.04%     99.80% |          27      0.09%     99.88% |          11      0.04%     99.92% |          14      0.04%     99.96% |          11      0.04%    100.00% |           0      0.00%    100.00% |           0      0.00%    100.00% (Unspecified)
board.cache_hierarchy.ruby_system.L2Cache_Controller.MT.L1_GETX::total        31124                       (Unspecified)
board.cache_hierarchy.ruby_system.L2Cache_Controller.MT.L1_PUTX |          24      4.10%      4.10% |          54      9.23%     13.33% |          31      5.30%     18.63% |          47      8.03%     26.67% |          62     10.60%     37.26% |          63     10.77%     48.03% |          46      7.86%     55.90% |          47      8.03%     63.93% |          47      8.03%     71.97% |          31      5.30%     77.26% |          31      5.30%     82.56% |          11      1.88%     84.44% |          29      4.96%     89.40% |          39      6.67%     96.07% |          15      2.56%     98.63% |           8      1.37%    100.00% (Unspecified)
board.cache_hierarchy.ruby_system.L2Cache_Controller.MT.L1_PUTX::total          585                       (Unspecified)
board.cache_hierarchy.ruby_system.L2Cache_Controller.ISS.Mem_Data |           0      0.00%      0.00% |           2      2.67%      2.67% |           0      0.00%      2.67% |           0      0.00%      2.67% |          16     21.33%     24.00% |           1      1.33%     25.33% |           2      2.67%     28.00% |           0      0.00%     28.00% |           1      1.33%     29.33% |          17     22.67%     52.00% |           2      2.67%     54.67% |           1      1.33%     56.00% |           1      1.33%     57.33% |           0      0.00%     57.33% |          15     20.00%     77.33% |          17     22.67%    100.00% (Unspecified)
board.cache_hierarchy.ruby_system.L2Cache_Controller.ISS.Mem_Data::total           75                       (Unspecified)
board.cache_hierarchy.ruby_system.L2Cache_Controller.IS.L1_GET_INSTR |           6      4.92%      4.92% |           4      3.28%      8.20% |           9      7.38%     15.57% |          12      9.84%     25.41% |          12      9.84%     35.25% |           7      5.74%     40.98% |           9      7.38%     48.36% |           9      7.38%     55.74% |           5      4.10%     59.84% |           5      4.10%     63.93% |           6      4.92%     68.85% |           6      4.92%     73.77% |          10      8.20%     81.97% |           8      6.56%     88.52% |           6      4.92%     93.44% |           8      6.56%    100.00% (Unspecified)
board.cache_hierarchy.ruby_system.L2Cache_Controller.IS.L1_GET_INSTR::total          122                       (Unspecified)
board.cache_hierarchy.ruby_system.L2Cache_Controller.IS.Mem_Data |          25      6.56%      6.56% |          25      6.56%     13.12% |          26      6.82%     19.95% |          28      7.35%     27.30% |          26      6.82%     34.12% |          25      6.56%     40.68% |          19      4.99%     45.67% |          18      4.72%     50.39% |          20      5.25%     55.64% |          25      6.56%     62.20% |          24      6.30%     68.50% |          22      5.77%     74.28% |          27      7.09%     81.36% |          27      7.09%     88.45% |          22      5.77%     94.23% |          22      5.77%    100.00% (Unspecified)
board.cache_hierarchy.ruby_system.L2Cache_Controller.IS.Mem_Data::total          381                       (Unspecified)
board.cache_hierarchy.ruby_system.L2Cache_Controller.IM.Mem_Data |          37      5.03%      5.03% |          49      6.67%     11.70% |          54      7.35%     19.05% |          54      7.35%     26.39% |          54      7.35%     33.74% |          71      9.66%     43.40% |          54      7.35%     50.75% |          54      7.35%     58.10% |          54      7.35%     65.44% |          37      5.03%     70.48% |          37      5.03%     75.51% |          22      2.99%     78.50% |          39      5.31%     83.81% |          54      7.35%     91.16% |          33      4.49%     95.65% |          32      4.35%    100.00% (Unspecified)
board.cache_hierarchy.ruby_system.L2Cache_Controller.IM.Mem_Data::total          735                       (Unspecified)
board.cache_hierarchy.ruby_system.L2Cache_Controller.SS_MB.L1_GETS |           0      0.00%      0.00% |           0      0.00%      0.00% |           0      0.00%      0.00% |           0      0.00%      0.00% |           0      0.00%      0.00% |           0      0.00%      0.00% |           0      0.00%      0.00% |           0      0.00%      0.00% |           0      0.00%      0.00% |           0      0.00%      0.00% |           9    100.00%    100.00% |           0      0.00%    100.00% |           0      0.00%    100.00% |           0      0.00%    100.00% |           0      0.00%    100.00% |           0      0.00%    100.00% (Unspecified)
board.cache_hierarchy.ruby_system.L2Cache_Controller.SS_MB.L1_GETS::total            9                       (Unspecified)
board.cache_hierarchy.ruby_system.L2Cache_Controller.SS_MB.L1_GETX |           0      0.00%      0.00% |           0      0.00%      0.00% |           0      0.00%      0.00% |           0      0.00%      0.00% |           0      0.00%      0.00% |           0      0.00%      0.00% |           0      0.00%      0.00% |           0      0.00%      0.00% |           0      0.00%      0.00% |           0      0.00%      0.00% |           2    100.00%    100.00% |           0      0.00%    100.00% |           0      0.00%    100.00% |           0      0.00%    100.00% |           0      0.00%    100.00% |           0      0.00%    100.00% (Unspecified)
board.cache_hierarchy.ruby_system.L2Cache_Controller.SS_MB.L1_GETX::total            2                       (Unspecified)
board.cache_hierarchy.ruby_system.L2Cache_Controller.SS_MB.L1_UPGRADE |           0      0.00%      0.00% |           2     22.22%     22.22% |           0      0.00%     22.22% |           0      0.00%     22.22% |           0      0.00%     22.22% |           2     22.22%     44.44% |           0      0.00%     44.44% |           0      0.00%     44.44% |           0      0.00%     44.44% |           0      0.00%     44.44% |           5     55.56%    100.00% |           0      0.00%    100.00% |           0      0.00%    100.00% |           0      0.00%    100.00% |           0      0.00%    100.00% |           0      0.00%    100.00% (Unspecified)
board.cache_hierarchy.ruby_system.L2Cache_Controller.SS_MB.L1_UPGRADE::total            9                       (Unspecified)
board.cache_hierarchy.ruby_system.L2Cache_Controller.SS_MB.Exclusive_Unblock |           1      0.45%      0.45% |          53     23.98%     24.43% |          27     12.22%     36.65% |          13      5.88%     42.53% |          10      4.52%     47.06% |          31     14.03%     61.09% |           5      2.26%     63.35% |           5      2.26%     65.61% |           2      0.90%     66.52% |           2      0.90%     67.42% |          38     17.19%     84.62% |           0      0.00%     84.62% |          13      5.88%     90.50% |           3      1.36%     91.86% |          17      7.69%     99.55% |           1      0.45%    100.00% (Unspecified)
board.cache_hierarchy.ruby_system.L2Cache_Controller.SS_MB.Exclusive_Unblock::total          221                       (Unspecified)
board.cache_hierarchy.ruby_system.L2Cache_Controller.MT_MB.L1_GETS |           0      0.00%      0.00% |           0      0.00%      0.00% |           1     16.67%     16.67% |           0      0.00%     16.67% |           0      0.00%     16.67% |           0      0.00%     16.67% |           0      0.00%     16.67% |           0      0.00%     16.67% |           0      0.00%     16.67% |           0      0.00%     16.67% |           3     50.00%     66.67% |           0      0.00%     66.67% |           0      0.00%     66.67% |           1     16.67%     83.33% |           0      0.00%     83.33% |           1     16.67%    100.00% (Unspecified)
board.cache_hierarchy.ruby_system.L2Cache_Controller.MT_MB.L1_GETS::total            6                       (Unspecified)
board.cache_hierarchy.ruby_system.L2Cache_Controller.MT_MB.L1_GETX |      422995    100.00%    100.00% |           2      0.00%    100.00% |           0      0.00%    100.00% |           0      0.00%    100.00% |           3      0.00%    100.00% |           1      0.00%    100.00% |           0      0.00%    100.00% |           0      0.00%    100.00% |           0      0.00%    100.00% |           0      0.00%    100.00% |           4      0.00%    100.00% |           0      0.00%    100.00% |           0      0.00%    100.00% |           0      0.00%    100.00% |           0      0.00%    100.00% |           0      0.00%    100.00% (Unspecified)
board.cache_hierarchy.ruby_system.L2Cache_Controller.MT_MB.L1_GETX::total       423005                       (Unspecified)
board.cache_hierarchy.ruby_system.L2Cache_Controller.MT_MB.Exclusive_Unblock |       31080     91.32%     91.32% |         204      0.60%     91.92% |         187      0.55%     92.47% |         203      0.60%     93.06% |         248      0.73%     93.79% |         256      0.75%     94.54% |         216      0.63%     95.18% |         215      0.63%     95.81% |         216      0.63%     96.44% |         181      0.53%     96.98% |         185      0.54%     97.52% |         147      0.43%     97.95% |         186      0.55%     98.50% |         188      0.55%     99.05% |         165      0.48%     99.54% |         158      0.46%    100.00% (Unspecified)
board.cache_hierarchy.ruby_system.L2Cache_Controller.MT_MB.Exclusive_Unblock::total        34035                       (Unspecified)
board.cache_hierarchy.ruby_system.L2Cache_Controller.MT_IIB.L1_GETS |           0      0.00%      0.00% |           5     27.78%     27.78% |           1      5.56%     33.33% |           0      0.00%     33.33% |           0      0.00%     33.33% |           1      5.56%     38.89% |           0      0.00%     38.89% |           0      0.00%     38.89% |           0      0.00%     38.89% |           2     11.11%     50.00% |           9     50.00%    100.00% |           0      0.00%    100.00% |           0      0.00%    100.00% |           0      0.00%    100.00% |           0      0.00%    100.00% |           0      0.00%    100.00% (Unspecified)
board.cache_hierarchy.ruby_system.L2Cache_Controller.MT_IIB.L1_GETS::total           18                       (Unspecified)
board.cache_hierarchy.ruby_system.L2Cache_Controller.MT_IIB.L1_GETX |           0      0.00%      0.00% |           0      0.00%      0.00% |           0      0.00%      0.00% |           0      0.00%      0.00% |           0      0.00%      0.00% |           0      0.00%      0.00% |           0      0.00%      0.00% |           0      0.00%      0.00% |           0      0.00%      0.00% |           0      0.00%      0.00% |           1    100.00%    100.00% |           0      0.00%    100.00% |           0      0.00%    100.00% |           0      0.00%    100.00% |           0      0.00%    100.00% |           0      0.00%    100.00% (Unspecified)
board.cache_hierarchy.ruby_system.L2Cache_Controller.MT_IIB.L1_GETX::total            1                       (Unspecified)
board.cache_hierarchy.ruby_system.L2Cache_Controller.MT_IIB.WB_Data |          22      4.20%      4.20% |          62     11.83%     16.03% |          59     11.26%     27.29% |          29      5.53%     32.82% |          25      4.77%     37.60% |          57     10.88%     48.47% |          19      3.63%     52.10% |          20      3.82%     55.92% |          20      3.82%     59.73% |          38      7.25%     66.98% |          50      9.54%     76.53% |          19      3.63%     80.15% |          28      5.34%     85.50% |          18      3.44%     88.93% |          34      6.49%     95.42% |          24      4.58%    100.00% (Unspecified)
board.cache_hierarchy.ruby_system.L2Cache_Controller.MT_IIB.WB_Data::total          524                       (Unspecified)
board.cache_hierarchy.ruby_system.L2Cache_Controller.MT_IIB.WB_Data_clean |         108      5.97%      5.97% |         111      6.14%     12.11% |         114      6.31%     18.42% |         115      6.36%     24.78% |         114      6.31%     31.08% |         118      6.53%     37.61% |         116      6.42%     44.03% |         113      6.25%     50.28% |         113      6.25%     56.53% |         112      6.19%     62.72% |         114      6.31%     69.03% |         109      6.03%     75.06% |         114      6.31%     81.36% |         116      6.42%     87.78% |         114      6.31%     94.08% |         107      5.92%    100.00% (Unspecified)
board.cache_hierarchy.ruby_system.L2Cache_Controller.MT_IIB.WB_Data_clean::total         1808                       (Unspecified)
board.cache_hierarchy.ruby_system.L2Cache_Controller.MT_IIB.Unblock |           1      2.27%      2.27% |          19     43.18%     45.45% |           0      0.00%     45.45% |          15     34.09%     79.55% |           1      2.27%     81.82% |           0      0.00%     81.82% |           1      2.27%     84.09% |           1      2.27%     86.36% |           0      0.00%     86.36% |           0      0.00%     86.36% |           4      9.09%     95.45% |           0      0.00%     95.45% |           0      0.00%     95.45% |           0      0.00%     95.45% |           1      2.27%     97.73% |           1      2.27%    100.00% (Unspecified)
board.cache_hierarchy.ruby_system.L2Cache_Controller.MT_IIB.Unblock::total           44                       (Unspecified)
board.cache_hierarchy.ruby_system.L2Cache_Controller.MT_IB.WB_Data |           1      3.85%      3.85% |          17     65.38%     69.23% |           0      0.00%     69.23% |           0      0.00%     69.23% |           1      3.85%     73.08% |           0      0.00%     73.08% |           1      3.85%     76.92% |           1      3.85%     80.77% |           0      0.00%     80.77% |           0      0.00%     80.77% |           4     15.38%     96.15% |           0      0.00%     96.15% |           0      0.00%     96.15% |           0      0.00%     96.15% |           0      0.00%     96.15% |           1      3.85%    100.00% (Unspecified)
board.cache_hierarchy.ruby_system.L2Cache_Controller.MT_IB.WB_Data::total           26                       (Unspecified)
[...]
board.processor.cores9.core.decode.branchMispred          119                       # Number of times decode detected a branch misprediction (Count)
board.processor.cores9.core.decode.decodedInsts       301339                       # Number of instructions handled by decode (Count)
board.processor.cores9.core.decode.squashedInsts          605                       # Number of squashed instructions handled by decode (Count)
board.processor.cores9.core.executeStats0.numInsts       180500                       # Number of executed instructions (Count)
board.processor.cores9.core.executeStats0.numNop            0                       # Number of nop insts executed (Count)
board.processor.cores9.core.executeStats0.numBranches        12973                       # Number of branches executed (Count)
board.processor.cores9.core.executeStats0.numLoadInsts        41799                       # Number of load instructions executed (Count)
board.processor.cores9.core.executeStats0.numStoreInsts        18998                       # Number of stores executed (Count)
board.processor.cores9.core.executeStats0.instRate     0.035354                       # Inst execution rate ((Count/Cycle))
board.processor.cores9.core.executeStats0.numCCRegReads        22882                       # Number of times the CC registers were read (Count)
board.processor.cores9.core.executeStats0.numCCRegWrites        30038                       # Number of times the CC registers were written (Count)
board.processor.cores9.core.executeStats0.numFpRegReads           14                       # Number of times the floating registers were read (Count)
board.processor.cores9.core.executeStats0.numFpRegWrites            8                       # Number of times the floating registers were written (Count)
board.processor.cores9.core.executeStats0.numIntRegReads       234248                       # Number of times the integer registers were read (Count)
board.processor.cores9.core.executeStats0.numIntRegWrites       133469                       # Number of times the integer registers were written (Count)
board.processor.cores9.core.executeStats0.numMemRefs        60797                       # Number of memory refs (Count)
board.processor.cores9.core.executeStats0.numMiscRegReads        86789                       # Number of times the Misc registers were read (Count)
board.processor.cores9.core.executeStats0.numMiscRegWrites            1                       # Number of times the Misc registers were written (Count)
board.processor.cores9.core.executeStats0.numVecAluAccesses            0                       # Number of vector alu accesses (Count)
board.processor.cores9.core.executeStats0.numDiscardedOps            0                       # Number of ops (including micro ops) which were discarded before commit (Count)
board.processor.cores9.core.fetch.predictedBranches        23091                       # Number of branches that fetch has predicted taken (Count)
board.processor.cores9.core.fetch.cycles      5052795                       # Number of cycles fetch has run and was not squashing or blocked (Cycle)
board.processor.cores9.core.fetch.squashCycles         4712                       # Number of cycles fetch has spent squashing (Cycle)
board.processor.cores9.core.fetch.miscStallCycles           90                       # Number of cycles fetch has spent waiting on interrupts, or bad addresses, or out of MSHRs (Cycle)
board.processor.cores9.core.fetch.pendingTrapStallCycles          581                       # Number of stall cycles due to pending traps (Cycle)
board.processor.cores9.core.fetch.cacheLines        33615                       # Number of cache lines fetched (Count)
board.processor.cores9.core.fetch.icacheSquashes           78                       # Number of outstanding Icache misses that were squashed (Count)
board.processor.cores9.core.fetch.nisnDist::samples      5097382                       # Number of instructions fetched each cycle (Total) (Count)
board.processor.cores9.core.fetch.nisnDist::mean     0.072327                       # Number of instructions fetched each cycle (Total) (Count)
board.processor.cores9.core.fetch.nisnDist::stdev     0.705860                       # Number of instructions fetched each cycle (Total) (Count)
board.processor.cores9.core.fetch.nisnDist::underflows            0      0.00%      0.00% # Number of instructions fetched each cycle (Total) (Count)
board.processor.cores9.core.fetch.nisnDist::0      5038465     98.84%     98.84% # Number of instructions fetched each cycle (Total) (Count)
board.processor.cores9.core.fetch.nisnDist::1           76      0.00%     98.85% # Number of instructions fetched each cycle (Total) (Count)
board.processor.cores9.core.fetch.nisnDist::2         6175      0.12%     98.97% # Number of instructions fetched each cycle (Total) (Count)
board.processor.cores9.core.fetch.nisnDist::3           88      0.00%     98.97% # Number of instructions fetched each cycle (Total) (Count)
board.processor.cores9.core.fetch.nisnDist::4        10307      0.20%     99.17% # Number of instructions fetched each cycle (Total) (Count)
board.processor.cores9.core.fetch.nisnDist::5          157      0.00%     99.17% # Number of instructions fetched each cycle (Total) (Count)
board.processor.cores9.core.fetch.nisnDist::6        10373      0.20%     99.38% # Number of instructions fetched each cycle (Total) (Count)
board.processor.cores9.core.fetch.nisnDist::7         2192      0.04%     99.42% # Number of instructions fetched each cycle (Total) (Count)
board.processor.cores9.core.fetch.nisnDist::8        29549      0.58%    100.00% # Number of instructions fetched each cycle (Total) (Count)
board.processor.cores9.core.fetch.nisnDist::overflows            0      0.00%    100.00% # Number of instructions fetched each cycle (Total) (Count)
board.processor.cores9.core.fetch.nisnDist::min_value            0                       # Number of instructions fetched each cycle (Total) (Count)
board.processor.cores9.core.fetch.nisnDist::max_value            8                       # Number of instructions fetched each cycle (Total) (Count)
board.processor.cores9.core.fetch.nisnDist::total      5097382                       # Number of instructions fetched each cycle (Total) (Count)
board.processor.cores9.core.fetchStats0.numInsts       242620                       # Number of instructions fetched (thread level) (Count)
board.processor.cores9.core.fetchStats0.numOps            0                       # Number of ops (including micro ops) fetched (thread level) (Count)
board.processor.cores9.core.fetchStats0.fetchRate     0.047521                       # Number of inst fetches per cycle ((Count/Cycle))
board.processor.cores9.core.fetchStats0.numBranches        23736                       # Number of branches fetched (Count)
board.processor.cores9.core.fetchStats0.branchRate     0.004649                       # Number of branch fetches per cycle (Ratio)
board.processor.cores9.core.fetchStats0.icacheStallCycles        41560                       # ICache total stall cycles (Cycle)
board.processor.cores9.core.fetchStats0.numFetchSuspends            0                       # Number of times Execute suspended instruction fetching (Count)
board.processor.cores9.core.iew.idleCycles            0                       # Number of cycles IEW is idle (Cycle)
board.processor.cores9.core.iew.squashCycles         2240                       # Number of cycles IEW is squashing (Cycle)
board.processor.cores9.core.iew.blockCycles      4964514                       # Number of cycles IEW is blocking (Cycle)
board.processor.cores9.core.iew.unblockCycles         4283                       # Number of cycles IEW is unblocking (Cycle)
board.processor.cores9.core.iew.dispatchedInsts       284332                       # Number of instructions dispatched to IQ (Count)
board.processor.cores9.core.iew.dispSquashedInsts            2                       # Number of squashed instructions skipped by dispatch (Count)
board.processor.cores9.core.iew.dispLoadInsts        74810                       # Number of dispatched load instructions (Count)
board.processor.cores9.core.iew.dispStoreInsts        35516                       # Number of dispatched store instructions (Count)
board.processor.cores9.core.iew.dispNonSpecInsts         6179                       # Number of dispatched non-speculative instructions (Count)
board.processor.cores9.core.iew.iqFullEvents           39                       # Number of times the IQ has become full, causing a stall (Count)
board.processor.cores9.core.iew.lsqFullEvents          145                       # Number of times the LSQ has become full, causing a stall (Count)
board.processor.cores9.core.iew.memOrderViolationEvents         4100                       # Number of memory order violations (Count)
board.processor.cores9.core.iew.predictedTakenIncorrect            8                       # Number of branches that were predicted taken incorrectly (Count)
board.processor.cores9.core.iew.predictedNotTakenIncorrect          177                       # Number of branches that were predicted not taken incorrectly (Count)
board.processor.cores9.core.iew.branchMispredicts          185                       # Number of branch mispredicts detected at execute (Count)
board.processor.cores9.core.iew.instsToCommit       180449                       # Cumulative count of insts sent to commit (Count)
board.processor.cores9.core.iew.writebackCount       180260                       # Cumulative count of insts written-back (Count)
board.processor.cores9.core.iew.producerInst       118800                       # Number of instructions producing a value (Count)
board.processor.cores9.core.iew.consumerInst       221421                       # Number of instructions consuming a value (Count)
board.processor.cores9.core.iew.wbRate       0.035307                       # Insts written-back per cycle ((Count/Cycle))
board.processor.cores9.core.iew.wbFanout     0.536534                       # Average fanout of values written-back ((Count/Count))
board.processor.cores9.core.interrupts.clk_domain.clock         5328                       # Clock period in ticks (Tick)
board.processor.cores9.core.lsq0.forwLoads         4263                       # Number of loads that had data forwarded from stores (Count)
board.processor.cores9.core.lsq0.squashedLoads        47619                       # Number of loads squashed (Count)
board.processor.cores9.core.lsq0.ignoredResponses            1                       # Number of memory responses ignored because the instruction is squashed (Count)
board.processor.cores9.core.lsq0.memOrderViolation         4100                       # Number of memory ordering violations (Count)
board.processor.cores9.core.lsq0.squashedStores        22787                       # Number of stores squashed (Count)
board.processor.cores9.core.lsq0.rescheduledLoads            0                       # Number of loads that were rescheduled (Count)
board.processor.cores9.core.lsq0.blockedByCache            2                       # Number of times an access to memory failed due to the cache being blocked (Count)
board.processor.cores9.core.lsq0.loadToUse::samples        27191                       # Distribution of cycle latency between the first time a load is issued and its completion (Unspecified)
board.processor.cores9.core.lsq0.loadToUse::mean   184.656614                       # Distribution of cycle latency between the first time a load is issued and its completion (Unspecified)
board.processor.cores9.core.lsq0.loadToUse::stdev   628.429521                       # Distribution of cycle latency between the first time a load is issued and its completion (Unspecified)
board.processor.cores9.core.lsq0.loadToUse::0-9        23152     85.15%     85.15% # Distribution of cycle latency between the first time a load is issued and its completion (Unspecified)
board.processor.cores9.core.lsq0.loadToUse::10-19          129      0.47%     85.62% # Distribution of cycle latency between the first time a load is issued and its completion (Unspecified)
board.processor.cores9.core.lsq0.loadToUse::60-69            1      0.00%     85.62% # Distribution of cycle latency between the first time a load is issued and its completion (Unspecified)
board.processor.cores9.core.lsq0.loadToUse::80-89            2      0.01%     85.63% # Distribution of cycle latency between the first time a load is issued and its completion (Unspecified)
board.processor.cores9.core.lsq0.loadToUse::110-119         1934      7.11%     92.74% # Distribution of cycle latency between the first time a load is issued and its completion (Unspecified)
board.processor.cores9.core.lsq0.loadToUse::120-129           28      0.10%     92.85% # Distribution of cycle latency between the first time a load is issued and its completion (Unspecified)
board.processor.cores9.core.lsq0.loadToUse::160-169            3      0.01%     92.86% # Distribution of cycle latency between the first time a load is issued and its completion (Unspecified)
board.processor.cores9.core.lsq0.loadToUse::170-179           10      0.04%     92.89% # Distribution of cycle latency between the first time a load is issued and its completion (Unspecified)
board.processor.cores9.core.lsq0.loadToUse::180-189            2      0.01%     92.90% # Distribution of cycle latency between the first time a load is issued and its completion (Unspecified)
board.processor.cores9.core.lsq0.loadToUse::210-219            7      0.03%     92.93% # Distribution of cycle latency between the first time a load is issued and its completion (Unspecified)
board.processor.cores9.core.lsq0.loadToUse::220-229            1      0.00%     92.93% # Distribution of cycle latency between the first time a load is issued and its completion (Unspecified)
board.processor.cores9.core.lsq0.loadToUse::290-299            1      0.00%     92.94% # Distribution of cycle latency between the first time a load is issued and its completion (Unspecified)
board.processor.cores9.core.lsq0.loadToUse::overflows         1921      7.06%    100.00% # Distribution of cycle latency between the first time a load is issued and its completion (Unspecified)
board.processor.cores9.core.lsq0.loadToUse::min_value            2                       # Distribution of cycle latency between the first time a load is issued and its completion (Unspecified)
board.processor.cores9.core.lsq0.loadToUse::max_value         2494                       # Distribution of cycle latency between the first time a load is issued and its completion (Unspecified)
board.processor.cores9.core.lsq0.loadToUse::total        27191                       # Distribution of cycle latency between the first time a load is issued and its completion (Unspecified)
board.processor.cores9.core.mmu.dtb.rdAccesses        41787                       # TLB accesses on read requests (Count)
board.processor.cores9.core.mmu.dtb.wrAccesses        18998                       # TLB accesses on write requests (Count)
board.processor.cores9.core.mmu.dtb.rdMisses           98                       # TLB misses on read requests (Count)
board.processor.cores9.core.mmu.dtb.wrMisses           12                       # TLB misses on write requests (Count)
board.processor.cores9.core.mmu.dtb.walker.power_state.pwrStateResidencyTicks::UNDEFINED   2087628948                       # Cumulative time (in ticks) in various power states (Tick)
board.processor.cores9.core.mmu.itb.rdAccesses            0                       # TLB accesses on read requests (Count)
board.processor.cores9.core.mmu.itb.wrAccesses        33708                       # TLB accesses on write requests (Count)
board.processor.cores9.core.mmu.itb.rdMisses            0                       # TLB misses on read requests (Count)
board.processor.cores9.core.mmu.itb.wrMisses          140                       # TLB misses on write requests (Count)
board.processor.cores9.core.mmu.itb.walker.power_state.pwrStateResidencyTicks::UNDEFINED   2087628948                       # Cumulative time (in ticks) in various power states (Tick)
board.processor.cores9.core.power_state.pwrStateResidencyTicks::ON   2087628948                       # Cumulative time (in ticks) in various power states (Tick)
board.processor.cores9.core.rename.squashCycles         2240                       # Number of cycles rename is squashing (Cycle)
board.processor.cores9.core.rename.idleCycles        33471                       # Number of cycles rename is idle (Cycle)
board.processor.cores9.core.rename.blockCycles      4985523                       # Number of cycles rename is blocking (Cycle)
board.processor.cores9.core.rename.serializeStallCycles            0                       # count of cycles rename stalled for serializing inst (Cycle)
board.processor.cores9.core.rename.runCycles        34067                       # Number of cycles rename is running (Cycle)
board.processor.cores9.core.rename.unblockCycles        42081                       # Number of cycles rename is unblocking (Cycle)
board.processor.cores9.core.rename.renamedInsts       301046                       # Number of instructions processed by rename (Count)
board.processor.cores9.core.rename.ROBFullEvents           11                       # Number of times rename has blocked due to ROB full (Count)
board.processor.cores9.core.rename.IQFullEvents        39004                       # Number of times rename has blocked due to IQ full (Count)
board.processor.cores9.core.rename.LQFullEvents           64                       # Number of times rename has blocked due to LQ full (Count)
board.processor.cores9.core.rename.SQFullEvents          947                       # Number of times rename has blocked due to SQ full (Count)
board.processor.cores9.core.rename.renamedOperands       386375                       # Number of destination operands rename has renamed (Count)
board.processor.cores9.core.rename.lookups       894812                       # Number of register rename lookups that rename has made (Count)
board.processor.cores9.core.rename.intLookups       429614                       # Number of integer rename lookups (Count)
board.processor.cores9.core.rename.fpLookups           14                       # Number of floating rename lookups (Count)
board.processor.cores9.core.rename.committedMaps       130781                       # Number of HB maps that are committed (Count)
board.processor.cores9.core.rename.undoneMaps       255594                       # Number of HB maps that are undone due to squashing (Count)
board.processor.cores9.core.rename.serializing            0                       # count of serializing insts renamed (Count)
board.processor.cores9.core.rename.tempSerializing            0                       # count of temporary serializing insts renamed (Count)
board.processor.cores9.core.rename.skidInsts        61959                       # count of insts added to the skid buffer (Count)
board.processor.cores9.core.rob.reads         5356093                       # The number of ROB reads (Count)
board.processor.cores9.core.rob.writes         591364                       # The number of ROB writes (Count)
board.processor.cores9.core.thread_0.numInsts        65441                       # Number of Instructions committed (Count)
board.processor.cores9.core.thread_0.numOps       102449                       # Number of Ops committed (Count)
board.processor.cores9.core.thread_0.numMemRefs            0                       # Number of Memory References (Count)
board.workload.inst.arm                             0                       # number of arm instructions executed (Count)
board.workload.inst.quiesce                         0                       # number of quiesce instructions executed (Count)

---------- End Simulation Statistics   ----------
