
---------- Begin Simulation Statistics ----------
simSeconds                                   0.000686                       # Number of seconds simulated (Second)
simTicks                                    685668645                       # Number of ticks simulated (Tick)
finalTick                                   949807242                       # Number of ticks from beginning of simulation (restored from checkpoints and never reset) (Tick)
simFreq                                  1000000000000                       # The number of ticks per simulated second ((Tick/Second))
hostSeconds                                     45.75                       # Real time elapsed on the host (Second)
hostTickRate                                 14986434                       # The number of ticks simulated per host second (ticks/s) ((Tick/Second))
hostMemory                                    1755520                       # Number of bytes of host memory used (Byte)
simInsts                                      1666144                       # Number of instructions simulated (Count)
simOps                                        2597099                       # Number of ops (including micro ops) simulated (Count)
hostInstRate                                    36415                       # Simulator instruction rate (inst/s) ((Count/Second))
hostOpRate                                      56762                       # Simulator op (including micro ops) rate (op/s) ((Count/Second))
board.cache_hierarchy.ruby_system.delayHistogram::bucket_size          512                       # delay histogram for all message (Unspecified)
board.cache_hierarchy.ruby_system.delayHistogram::max_bucket         5119                       # delay histogram for all message (Unspecified)
board.cache_hierarchy.ruby_system.delayHistogram::samples       219654                       # delay histogram for all message (Unspecified)
board.cache_hierarchy.ruby_system.delayHistogram::mean   419.150997                       # delay histogram for all message (Unspecified)
board.cache_hierarchy.ruby_system.delayHistogram::stdev  1195.572602                       # delay histogram for all message (Unspecified)
board.cache_hierarchy.ruby_system.delayHistogram |      195737     89.11%     89.11% |         208      0.09%     89.21% |         435      0.20%     89.40% |         383      0.17%     89.58% |          82      0.04%     89.62% |         571      0.26%     89.88% |         526      0.24%     90.12% |       17001      7.74%     97.86% |        4711      2.14%    100.00% |           0      0.00%    100.00% # delay histogram for all message (Unspecified)
board.cache_hierarchy.ruby_system.delayHistogram::total       219654                       # delay histogram for all message (Unspecified)
board.cache_hierarchy.ruby_system.m_outstandReqHistSeqr::bucket_size            2                       (Unspecified)
board.cache_hierarchy.ruby_system.m_outstandReqHistSeqr::max_bucket           19                       (Unspecified)
board.cache_hierarchy.ruby_system.m_outstandReqHistSeqr::samples      1036423                       (Unspecified)
board.cache_hierarchy.ruby_system.m_outstandReqHistSeqr::mean     1.334624                       (Unspecified)
board.cache_hierarchy.ruby_system.m_outstandReqHistSeqr::gmean     1.253026                       (Unspecified)
board.cache_hierarchy.ruby_system.m_outstandReqHistSeqr::stdev     0.542225                       (Unspecified)
board.cache_hierarchy.ruby_system.m_outstandReqHistSeqr |      708003     68.31%     68.31% |      324455     31.31%     99.62% |        3324      0.32%     99.94% |         306      0.03%     99.97% |         157      0.02%     99.98% |          78      0.01%     99.99% |          51      0.00%    100.00% |          43      0.00%    100.00% |           6      0.00%    100.00% |           0      0.00%    100.00% (Unspecified)
board.cache_hierarchy.ruby_system.m_outstandReqHistSeqr::total      1036423                       (Unspecified)
board.cache_hierarchy.ruby_system.m_latencyHistSeqr::bucket_size          128                       (Unspecified)
board.cache_hierarchy.ruby_system.m_latencyHistSeqr::max_bucket         1279                       (Unspecified)
board.cache_hierarchy.ruby_system.m_latencyHistSeqr::samples      1036772                       (Unspecified)
board.cache_hierarchy.ruby_system.m_latencyHistSeqr::mean    23.744330                       (Unspecified)
board.cache_hierarchy.ruby_system.m_latencyHistSeqr::gmean     1.413422                       (Unspecified)
board.cache_hierarchy.ruby_system.m_latencyHistSeqr::stdev   124.881701                       (Unspecified)
board.cache_hierarchy.ruby_system.m_latencyHistSeqr |     1003561     96.80%     96.80% |        9142      0.88%     97.68% |         263      0.03%     97.70% |         341      0.03%     97.74% |         575      0.06%     97.79% |         689      0.07%     97.86% |       22191      2.14%    100.00% |           0      0.00%    100.00% |           2      0.00%    100.00% |           8      0.00%    100.00% (Unspecified)
board.cache_hierarchy.ruby_system.m_latencyHistSeqr::total      1036772                       (Unspecified)
board.cache_hierarchy.ruby_system.m_hitLatencyHistSeqr::bucket_size           32                       (Unspecified)
board.cache_hierarchy.ruby_system.m_hitLatencyHistSeqr::max_bucket          319                       (Unspecified)
board.cache_hierarchy.ruby_system.m_hitLatencyHistSeqr::samples       966289                       (Unspecified)
board.cache_hierarchy.ruby_system.m_hitLatencyHistSeqr::mean     1.000909                       (Unspecified)
board.cache_hierarchy.ruby_system.m_hitLatencyHistSeqr::gmean     1.000276                       (Unspecified)
board.cache_hierarchy.ruby_system.m_hitLatencyHistSeqr::stdev     0.291797                       (Unspecified)
board.cache_hierarchy.ruby_system.m_hitLatencyHistSeqr |      966285    100.00%    100.00% |           1      0.00%    100.00% |           0      0.00%    100.00% |           1      0.00%    100.00% |           0      0.00%    100.00% |           1      0.00%    100.00% |           1      0.00%    100.00% |           0      0.00%    100.00% |           0      0.00%    100.00% |           0      0.00%    100.00% (Unspecified)
board.cache_hierarchy.ruby_system.m_hitLatencyHistSeqr::total       966289                       (Unspecified)
board.cache_hierarchy.ruby_system.m_missLatencyHistSeqr::bucket_size          128                       (Unspecified)
board.cache_hierarchy.ruby_system.m_missLatencyHistSeqr::max_bucket         1279                       (Unspecified)
board.cache_hierarchy.ruby_system.m_missLatencyHistSeqr::samples        70483                       (Unspecified)
board.cache_hierarchy.ruby_system.m_missLatencyHistSeqr::mean   335.546018                       (Unspecified)
board.cache_hierarchy.ruby_system.m_missLatencyHistSeqr::gmean   161.727752                       (Unspecified)
board.cache_hierarchy.ruby_system.m_missLatencyHistSeqr::stdev   353.681045                       (Unspecified)
board.cache_hierarchy.ruby_system.m_missLatencyHistSeqr |       37274     52.88%     52.88% |        9140     12.97%     65.85% |         263      0.37%     66.22% |         341      0.48%     66.71% |         575      0.82%     67.52% |         689      0.98%     68.50% |       22191     31.48%     99.99% |           0      0.00%     99.99% |           2      0.00%     99.99% |           8      0.01%    100.00% (Unspecified)
board.cache_hierarchy.ruby_system.m_missLatencyHistSeqr::total        70483                       (Unspecified)
board.cache_hierarchy.ruby_system.delayVCHist.vnet_0::bucket_size          512                       # delay histogram for vnet_0 (Unspecified)
board.cache_hierarchy.ruby_system.delayVCHist.vnet_0::max_bucket         5119                       # delay histogram for vnet_0 (Unspecified)
board.cache_hierarchy.ruby_system.delayVCHist.vnet_0::samples       109355                       # delay histogram for vnet_0 (Unspecified)
board.cache_hierarchy.ruby_system.delayVCHist.vnet_0::mean   841.727630                       # delay histogram for vnet_0 (Unspecified)
board.cache_hierarchy.ruby_system.delayVCHist.vnet_0::stdev  1586.039546                       # delay histogram for vnet_0 (Unspecified)
board.cache_hierarchy.ruby_system.delayVCHist.vnet_0 |       85438     78.13%     78.13% |         208      0.19%     78.32% |         435      0.40%     78.72% |         383      0.35%     79.07% |          82      0.07%     79.14% |         571      0.52%     79.66% |         526      0.48%     80.15% |       17001     15.55%     95.69% |        4711      4.31%    100.00% |           0      0.00%    100.00% # delay histogram for vnet_0 (Unspecified)
board.cache_hierarchy.ruby_system.delayVCHist.vnet_0::total       109355                       # delay histogram for vnet_0 (Unspecified)
board.cache_hierarchy.ruby_system.delayVCHist.vnet_1::bucket_size            4                       # delay histogram for vnet_1 (Unspecified)
board.cache_hierarchy.ruby_system.delayVCHist.vnet_1::max_bucket           39                       # delay histogram for vnet_1 (Unspecified)
board.cache_hierarchy.ruby_system.delayVCHist.vnet_1::samples        74837                       # delay histogram for vnet_1 (Unspecified)
board.cache_hierarchy.ruby_system.delayVCHist.vnet_1::mean     0.281438                       # delay histogram for vnet_1 (Unspecified)
board.cache_hierarchy.ruby_system.delayVCHist.vnet_1::stdev     1.529706                       # delay histogram for vnet_1 (Unspecified)
board.cache_hierarchy.ruby_system.delayVCHist.vnet_1 |       72290     96.60%     96.60% |         335      0.45%     97.04% |        2105      2.81%     99.86% |          54      0.07%     99.93% |          49      0.07%     99.99% |           2      0.00%    100.00% |           2      0.00%    100.00% |           0      0.00%    100.00% |           0      0.00%    100.00% |           0      0.00%    100.00% # delay histogram for vnet_1 (Unspecified)
board.cache_hierarchy.ruby_system.delayVCHist.vnet_1::total        74837                       # delay histogram for vnet_1 (Unspecified)
board.cache_hierarchy.ruby_system.delayVCHist.vnet_2::bucket_size            1                       # delay histogram for vnet_2 (Unspecified)
board.cache_hierarchy.ruby_system.delayVCHist.vnet_2::max_bucket            9                       # delay histogram for vnet_2 (Unspecified)
board.cache_hierarchy.ruby_system.delayVCHist.vnet_2::samples        35462                       # delay histogram for vnet_2 (Unspecified)
board.cache_hierarchy.ruby_system.delayVCHist.vnet_2::mean     0.000169                       # delay histogram for vnet_2 (Unspecified)
board.cache_hierarchy.ruby_system.delayVCHist.vnet_2::stdev     0.018395                       # delay histogram for vnet_2 (Unspecified)
board.cache_hierarchy.ruby_system.delayVCHist.vnet_2 |       35459     99.99%     99.99% |           0      0.00%     99.99% |           3      0.01%    100.00% |           0      0.00%    100.00% |           0      0.00%    100.00% |           0      0.00%    100.00% |           0      0.00%    100.00% |           0      0.00%    100.00% |           0      0.00%    100.00% |           0      0.00%    100.00% # delay histogram for vnet_2 (Unspecified)
board.cache_hierarchy.ruby_system.delayVCHist.vnet_2::total        35462                       # delay histogram for vnet_2 (Unspecified)
board.cache_hierarchy.ruby_system.Directory_Controller.Fetch         1146      0.00%      0.00% (Unspecified)
board.cache_hierarchy.ruby_system.Directory_Controller.Memory_Data         1146      0.00%      0.00% (Unspecified)
board.cache_hierarchy.ruby_system.Directory_Controller.I.Fetch         1146      0.00%      0.00% (Unspecified)
board.cache_hierarchy.ruby_system.Directory_Controller.IM.Memory_Data         1146      0.00%      0.00% (Unspecified)
board.cache_hierarchy.ruby_system.L1Cache_Controller.Load |       13395      4.72%      4.72% |       16916      5.96%     10.68% |       16897      5.95%     16.63% |       16886      5.95%     22.58% |       16892      5.95%     28.53% |       16911      5.96%     34.49% |       16892      5.95%     40.44% |       16924      5.96%     46.40% |       16895      5.95%     52.36% |       16919      5.96%     58.32% |       16901      5.95%     64.27% |       16891      5.95%     70.22% |       16906      5.96%     76.18% |       16896      5.95%     82.13% |       16902      5.95%     88.09% |       16908      5.96%     94.04% |       16909      5.96%    100.00% (Unspecified)
board.cache_hierarchy.ruby_system.L1Cache_Controller.Load::total       283840                       (Unspecified)
board.cache_hierarchy.ruby_system.L1Cache_Controller.Ifetch |       20744      4.21%      4.21% |       29405      5.97%     10.19% |       29442      5.98%     16.17% |       29434      5.98%     22.15% |       29449      5.98%     28.13% |       29466      5.99%     34.12% |       29432      5.98%     40.10% |       29489      5.99%     46.09% |       29441      5.98%     52.07% |       29491      5.99%     58.06% |       29454      5.98%     64.04% |       29444      5.98%     70.02% |       29457      5.98%     76.01% |       29482      5.99%     82.00% |       29523      6.00%     87.99% |       29554      6.00%     94.00% |       29541      6.00%    100.00% (Unspecified)
board.cache_hierarchy.ruby_system.L1Cache_Controller.Ifetch::total       492248                       (Unspecified)
board.cache_hierarchy.ruby_system.L1Cache_Controller.Store |       22827      8.76%      8.76% |       14793      5.67%     14.43% |       14793      5.67%     20.11% |       14793      5.67%     25.78% |       14793      5.67%     31.46% |       14793      5.67%     37.13% |       14793      5.67%     42.80% |       14793      5.67%     48.48% |       14793      5.67%     54.15% |       14793      5.67%     59.83% |       14793      5.67%     65.50% |       14793      5.67%     71.18% |       14793      5.67%     76.85% |       15085      5.79%     82.64% |       15085      5.79%     88.43% |       15085      5.79%     94.21% |       15085      5.79%    100.00% (Unspecified)
board.cache_hierarchy.ruby_system.L1Cache_Controller.Store::total       260683                       (Unspecified)
board.cache_hierarchy.ruby_system.L1Cache_Controller.Inv |          82     32.67%     32.67% |           9      3.59%     36.25% |           8      3.19%     39.44% |           9      3.59%     43.03% |           9      3.59%     46.61% |          10      3.98%     50.60% |           8      3.19%     53.78% |          11      4.38%     58.17% |          12      4.78%     62.95% |          14      5.58%     68.53% |          11      4.38%     72.91% |          12      4.78%     77.69% |          10      3.98%     81.67% |          12      4.78%     86.45% |          11      4.38%     90.84% |          11      4.38%     95.22% |          12      4.78%    100.00% (Unspecified)
board.cache_hierarchy.ruby_system.L1Cache_Controller.Inv::total          251                       (Unspecified)
board.cache_hierarchy.ruby_system.L1Cache_Controller.L1_Replacement |         861      3.22%      3.22% |        1609      6.02%      9.24% |        1610      6.02%     15.26% |        1609      6.02%     21.28% |        1610      6.02%     27.30% |        1612      6.03%     33.33% |        1609      6.02%     39.34% |        1612      6.03%     45.37% |        1609      6.02%     51.39% |        1613      6.03%     57.42% |        1609      6.02%     63.44% |        1610      6.02%     69.46% |        1609      6.02%     75.48% |        1639      6.13%     81.61% |        1639      6.13%     87.74% |        1640      6.13%     93.87% |        1639      6.13%    100.00% (Unspecified)
board.cache_hierarchy.ruby_system.L1Cache_Controller.L1_Replacement::total        26739                       (Unspecified)
board.cache_hierarchy.ruby_system.L1Cache_Controller.Fwd_GETX |          38      0.12%      0.12% |        2015      6.14%      6.25% |        2061      6.28%     12.53% |        2059      6.27%     18.80% |        2061      6.28%     25.08% |        2061      6.28%     31.36% |        2061      6.28%     37.64% |        2061      6.28%     43.92% |        2061      6.28%     50.19% |        2049      6.24%     56.44% |        2050      6.24%     62.68% |        2047      6.24%     68.92% |        2039      6.21%     75.13% |        2014      6.14%     81.26% |        2061      6.28%     87.54% |        2061      6.28%     93.82% |        2029      6.18%    100.00% (Unspecified)
board.cache_hierarchy.ruby_system.L1Cache_Controller.Fwd_GETX::total        32828                       (Unspecified)
board.cache_hierarchy.ruby_system.L1Cache_Controller.Fwd_GETS |         407     17.08%     17.08% |         374     15.69%     32.77% |          11      0.46%     33.24% |          11      0.46%     33.70% |          11      0.46%     34.16% |          11      0.46%     34.62% |          12      0.50%     35.12% |          12      0.50%     35.63% |          13      0.55%     36.17% |           8      0.34%     36.51% |           9      0.38%     36.89% |           8      0.34%     37.22% |           8      0.34%     37.56% |        1452     60.93%     98.49% |          11      0.46%     98.95% |          11      0.46%     99.41% |          14      0.59%    100.00% (Unspecified)
board.cache_hierarchy.ruby_system.L1Cache_Controller.Fwd_GETS::total         2383                       (Unspecified)
board.cache_hierarchy.ruby_system.L1Cache_Controller.Data |           0      0.00%      0.00% |           0      0.00%      0.00% |           0      0.00%      0.00% |           0      0.00%      0.00% |           0      0.00%      0.00% |           0      0.00%      0.00% |           0      0.00%      0.00% |           0      0.00%      0.00% |           0      0.00%      0.00% |           0      0.00%      0.00% |           1     50.00%     50.00% |           0      0.00%     50.00% |           0      0.00%     50.00% |           1     50.00%    100.00% |           0      0.00%    100.00% |           0      0.00%    100.00% |           0      0.00%    100.00% (Unspecified)
board.cache_hierarchy.ruby_system.L1Cache_Controller.Data::total            2                       (Unspecified)
board.cache_hierarchy.ruby_system.L1Cache_Controller.Data_Exclusive |          74      3.53%      3.53% |         375     17.87%     21.39% |          15      0.71%     22.11% |          13      0.62%     22.73% |          14      0.67%     23.39% |          14      0.67%     24.06% |          15      0.71%     24.77% |          14      0.67%     25.44% |          14      0.67%     26.11% |          16      0.76%     26.87% |          14      0.67%     27.54% |          14      0.67%     28.20% |          14      0.67%     28.87% |        1453     69.22%     98.09% |          13      0.62%     98.71% |          14      0.67%     99.38% |          13      0.62%    100.00% (Unspecified)
board.cache_hierarchy.ruby_system.L1Cache_Controller.Data_Exclusive::total         2099                       (Unspecified)
board.cache_hierarchy.ruby_system.L1Cache_Controller.DataS_fromL1 |          45      1.89%      1.89% |          42      1.76%      3.65% |         306     12.84%     16.49% |          17      0.71%     17.21% |          18      0.76%     17.96% |          18      0.76%     18.72% |          16      0.67%     19.39% |          18      0.76%     20.14% |          20      0.84%     20.98% |          20      0.84%     21.82% |          18      0.76%     22.58% |          20      0.84%     23.42% |          16      0.67%     24.09% |         345     14.48%     38.56% |        1432     60.09%     98.66% |          16      0.67%     99.33% |          16      0.67%    100.00% (Unspecified)
board.cache_hierarchy.ruby_system.L1Cache_Controller.DataS_fromL1::total         2383                       (Unspecified)
board.cache_hierarchy.ruby_system.L1Cache_Controller.Data_all_Acks |         773      1.18%      1.18% |        3863      5.87%      7.05% |        4006      6.09%     13.14% |        4294      6.53%     19.67% |        4295      6.53%     26.20% |        4303      6.54%     32.74% |        4296      6.53%     39.27% |        4304      6.54%     45.81% |        4296      6.53%     52.34% |        4305      6.54%     58.89% |        4299      6.54%     65.43% |        4296      6.53%     71.96% |        4293      6.53%     78.48% |        2536      3.86%     82.34% |        2937      4.47%     86.80% |        4355      6.62%     93.42% |        4325      6.58%    100.00% (Unspecified)
board.cache_hierarchy.ruby_system.L1Cache_Controller.Data_all_Acks::total        65776                       (Unspecified)
board.cache_hierarchy.ruby_system.L1Cache_Controller.Ack |          32     12.85%     12.85% |          13      5.22%     18.07% |          14      5.62%     23.69% |          13      5.22%     28.92% |          13      5.22%     34.14% |          12      4.82%     38.96% |          14      5.62%     44.58% |          14      5.62%     50.20% |          14      5.62%     55.82% |          18      7.23%     63.05% |          21      8.43%     71.49% |          15      6.02%     77.51% |          16      6.43%     83.94% |          11      4.42%     88.35% |          11      4.42%     92.77% |           9      3.61%     96.39% |           9      3.61%    100.00% (Unspecified)
board.cache_hierarchy.ruby_system.L1Cache_Controller.Ack::total          249                       (Unspecified)
board.cache_hierarchy.ruby_system.L1Cache_Controller.Ack_all |          28     12.44%     12.44% |          13      5.78%     18.22% |          13      5.78%     24.00% |          13      5.78%     29.78% |          13      5.78%     35.56% |          12      5.33%     40.89% |          13      5.78%     46.67% |          13      5.78%     52.44% |          14      6.22%     58.67% |          13      5.78%     64.44% |          15      6.67%     71.11% |          13      5.78%     76.89% |          13      5.78%     82.67% |          11      4.89%     87.56% |          10      4.44%     92.00% |           9      4.00%     96.00% |           9      4.00%    100.00% (Unspecified)
board.cache_hierarchy.ruby_system.L1Cache_Controller.Ack_all::total          225                       (Unspecified)
board.cache_hierarchy.ruby_system.L1Cache_Controller.WB_Ack |         351     61.15%     61.15% |          13      2.26%     63.41% |          14      2.44%     65.85% |          14      2.44%     68.29% |          14      2.44%     70.73% |          14      2.44%     73.17% |          14      2.44%     75.61% |          14      2.44%     78.05% |          14      2.44%     80.49% |          14      2.44%     82.93% |          14      2.44%     85.37% |          14      2.44%     87.80% |          14      2.44%     90.24% |          14      2.44%     92.68% |          14      2.44%     95.12% |          14      2.44%     97.56% |          14      2.44%    100.00% (Unspecified)
board.cache_hierarchy.ruby_system.L1Cache_Controller.WB_Ack::total          574                       (Unspecified)
board.cache_hierarchy.ruby_system.L1Cache_Controller.NP.Load |         126      0.37%      0.37% |        2093      6.23%      6.60% |        2095      6.23%     12.84% |        2093      6.23%     19.06% |        2095      6.23%     25.30% |        2094      6.23%     31.53% |        2093      6.23%     37.75% |        2094      6.23%     43.98% |        2093      6.23%     50.21% |        2096      6.24%     56.45% |        2093      6.23%     62.67% |        2094      6.23%     68.90% |        2093      6.23%     75.13% |        2090      6.22%     81.35% |        2089      6.22%     87.56% |        2091      6.22%     93.78% |        2089      6.22%    100.00% (Unspecified)
board.cache_hierarchy.ruby_system.L1Cache_Controller.NP.Load::total        33611                       (Unspecified)
board.cache_hierarchy.ruby_system.L1Cache_Controller.NP.Ifetch |         340     11.36%     11.36% |         158      5.28%     16.64% |         158      5.28%     21.92% |         158      5.28%     27.20% |         158      5.28%     32.48% |         165      5.51%     37.99% |         159      5.31%     43.30% |         164      5.48%     48.78% |         159      5.31%     54.09% |         163      5.45%     59.54% |         159      5.31%     64.85% |         158      5.28%     70.13% |         159      5.31%     75.44% |         183      6.11%     81.56% |         184      6.15%     87.70% |         184      6.15%     93.85% |         184      6.15%    100.00% (Unspecified)
board.cache_hierarchy.ruby_system.L1Cache_Controller.NP.Ifetch::total         2993                       (Unspecified)
board.cache_hierarchy.ruby_system.L1Cache_Controller.NP.Store |         395     40.43%     40.43% |          28      2.87%     43.30% |          27      2.76%     46.06% |          28      2.87%     48.93% |          27      2.76%     51.69% |          29      2.97%     54.66% |          28      2.87%     57.52% |          29      2.97%     60.49% |          28      2.87%     63.36% |          28      2.87%     66.22% |          28      2.87%     69.09% |          28      2.87%     71.95% |          28      2.87%     74.82% |          61      6.24%     81.06% |          62      6.35%     87.41% |          61      6.24%     93.65% |          62      6.35%    100.00% (Unspecified)
board.cache_hierarchy.ruby_system.L1Cache_Controller.NP.Store::total          977                       (Unspecified)
board.cache_hierarchy.ruby_system.L1Cache_Controller.NP.Inv |          10    100.00%    100.00% |           0      0.00%    100.00% |           0      0.00%    100.00% |           0      0.00%    100.00% |           0      0.00%    100.00% |           0      0.00%    100.00% |           0      0.00%    100.00% |           0      0.00%    100.00% |           0      0.00%    100.00% |           0      0.00%    100.00% |           0      0.00%    100.00% |           0      0.00%    100.00% |           0      0.00%    100.00% |           0      0.00%    100.00% |           0      0.00%    100.00% |           0      0.00%    100.00% |           0      0.00%    100.00% (Unspecified)
board.cache_hierarchy.ruby_system.L1Cache_Controller.NP.Inv::total           10                       (Unspecified)
board.cache_hierarchy.ruby_system.L1Cache_Controller.I.Load |          29     46.77%     46.77% |           0      0.00%     46.77% |           0      0.00%     46.77% |           0      0.00%     46.77% |           0      0.00%     46.77% |           0      0.00%     46.77% |           0      0.00%     46.77% |           2      3.23%     50.00% |           3      4.84%     54.84% |           7     11.29%     66.13% |           4      6.45%     72.58% |           5      8.06%     80.65% |           4      6.45%     87.10% |           1      1.61%     88.71% |           2      3.23%     91.94% |           3      4.84%     96.77% |           2      3.23%    100.00% (Unspecified)
board.cache_hierarchy.ruby_system.L1Cache_Controller.I.Load::total           62                       (Unspecified)
board.cache_hierarchy.ruby_system.L1Cache_Controller.I.Store |           1      0.00%      0.00% |        2001      6.14%      6.14% |        2047      6.28%     12.41% |        2045      6.27%     18.68% |        2047      6.28%     24.96% |        2047      6.28%     31.24% |        2047      6.28%     37.51% |        2047      6.28%     43.79% |        2047      6.28%     50.06% |        2047      6.28%     56.34% |        2048      6.28%     62.62% |        2045      6.27%     68.89% |        2039      6.25%     75.14% |        2000      6.13%     81.27% |        2045      6.27%     87.54% |        2046      6.27%     93.82% |        2017      6.18%    100.00% (Unspecified)
board.cache_hierarchy.ruby_system.L1Cache_Controller.I.Store::total        32616                       (Unspecified)
board.cache_hierarchy.ruby_system.L1Cache_Controller.I.L1_Replacement |          58     95.08%     95.08% |           1      1.64%     96.72% |           0      0.00%     96.72% |           0      0.00%     96.72% |           0      0.00%     96.72% |           1      1.64%     98.36% |           0      0.00%     98.36% |           0      0.00%     98.36% |           0      0.00%     98.36% |           1      1.64%    100.00% |           0      0.00%    100.00% |           0      0.00%    100.00% |           0      0.00%    100.00% |           0      0.00%    100.00% |           0      0.00%    100.00% |           0      0.00%    100.00% |           0      0.00%    100.00% (Unspecified)
board.cache_hierarchy.ruby_system.L1Cache_Controller.I.L1_Replacement::total           61                       (Unspecified)
board.cache_hierarchy.ruby_system.L1Cache_Controller.S.Load |         266     18.55%     18.55% |          64      4.46%     23.01% |          72      5.02%     28.03% |          66      4.60%     32.64% |          66      4.60%     37.24% |          71      4.95%     42.19% |          62      4.32%     46.51% |          69      4.81%     51.32% |          87      6.07%     57.39% |          84      5.86%     63.25% |          83      5.79%     69.04% |          79      5.51%     74.55% |          81      5.65%     80.20% |          70      4.88%     85.08% |          70      4.88%     89.96% |          67      4.67%     94.63% |          77      5.37%    100.00% (Unspecified)
board.cache_hierarchy.ruby_system.L1Cache_Controller.S.Load::total         1434                       (Unspecified)
board.cache_hierarchy.ruby_system.L1Cache_Controller.S.Ifetch |       20404      4.17%      4.17% |       29247      5.98%     10.15% |       29284      5.99%     16.13% |       29276      5.98%     22.12% |       29291      5.99%     28.10% |       29301      5.99%     34.09% |       29273      5.98%     40.08% |       29325      5.99%     46.07% |       29282      5.99%     52.06% |       29328      5.99%     58.05% |       29295      5.99%     64.04% |       29286      5.99%     70.02% |       29298      5.99%     76.01% |       29299      5.99%     82.00% |       29339      6.00%     88.00% |       29370      6.00%     94.00% |       29357      6.00%    100.00% (Unspecified)
board.cache_hierarchy.ruby_system.L1Cache_Controller.S.Ifetch::total       489255                       (Unspecified)
board.cache_hierarchy.ruby_system.L1Cache_Controller.S.Store |          28     12.56%     12.56% |          13      5.83%     18.39% |          13      5.83%     24.22% |          13      5.83%     30.04% |          13      5.83%     35.87% |          12      5.38%     41.26% |          13      5.83%     47.09% |          13      5.83%     52.91% |          14      6.28%     59.19% |          13      5.83%     65.02% |          14      6.28%     71.30% |          13      5.83%     77.13% |          13      5.83%     82.96% |          10      4.48%     87.44% |          10      4.48%     91.93% |           9      4.04%     95.96% |           9      4.04%    100.00% (Unspecified)
board.cache_hierarchy.ruby_system.L1Cache_Controller.S.Store::total          223                       (Unspecified)
board.cache_hierarchy.ruby_system.L1Cache_Controller.S.Inv |          72     29.88%     29.88% |           9      3.73%     33.61% |           8      3.32%     36.93% |           9      3.73%     40.66% |           9      3.73%     44.40% |          10      4.15%     48.55% |           8      3.32%     51.87% |          11      4.56%     56.43% |          12      4.98%     61.41% |          14      5.81%     67.22% |          11      4.56%     71.78% |          12      4.98%     76.76% |          10      4.15%     80.91% |          12      4.98%     85.89% |          11      4.56%     90.46% |          11      4.56%     95.02% |          12      4.98%    100.00% (Unspecified)
board.cache_hierarchy.ruby_system.L1Cache_Controller.S.Inv::total          241                       (Unspecified)
board.cache_hierarchy.ruby_system.L1Cache_Controller.S.L1_Replacement |         452      1.73%      1.73% |        1595      6.11%      7.84% |        1596      6.11%     13.96% |        1595      6.11%     20.07% |        1596      6.11%     26.18% |        1597      6.12%     32.30% |        1595      6.11%     38.41% |        1598      6.12%     44.53% |        1595      6.11%     50.64% |        1598      6.12%     56.76% |        1595      6.11%     62.87% |        1596      6.11%     68.99% |        1595      6.11%     75.10% |        1625      6.23%     81.32% |        1625      6.23%     87.55% |        1626      6.23%     93.77% |        1625      6.23%    100.00% (Unspecified)
board.cache_hierarchy.ruby_system.L1Cache_Controller.S.L1_Replacement::total        26104                       (Unspecified)
board.cache_hierarchy.ruby_system.L1Cache_Controller.E.Load |        1574     91.51%     91.51% |          11      0.64%     92.15% |           8      0.47%     92.62% |           8      0.47%     93.08% |           8      0.47%     93.55% |           8      0.47%     94.01% |          12      0.70%     94.71% |           8      0.47%     95.17% |           9      0.52%     95.70% |           8      0.47%     96.16% |           9      0.52%     96.69% |           9      0.52%     97.21% |           8      0.47%     97.67% |          10      0.58%     98.26% |          10      0.58%     98.84% |          10      0.58%     99.42% |          10      0.58%    100.00% (Unspecified)
board.cache_hierarchy.ruby_system.L1Cache_Controller.E.Load::total         1720                       (Unspecified)
board.cache_hierarchy.ruby_system.L1Cache_Controller.E.Store |          22     13.58%     13.58% |           8      4.94%     18.52% |           9      5.56%     24.07% |           8      4.94%     29.01% |           9      5.56%     34.57% |           8      4.94%     39.51% |           8      4.94%     44.44% |           8      4.94%     49.38% |           9      5.56%     54.94% |           9      5.56%     60.49% |           9      5.56%     66.05% |           9      5.56%     71.60% |           9      5.56%     77.16% |           9      5.56%     82.72% |           9      5.56%     88.27% |          10      6.17%     94.44% |           9      5.56%    100.00% (Unspecified)
board.cache_hierarchy.ruby_system.L1Cache_Controller.E.Store::total          162                       (Unspecified)
board.cache_hierarchy.ruby_system.L1Cache_Controller.E.L1_Replacement |          11     40.74%     40.74% |           1      3.70%     44.44% |           1      3.70%     48.15% |           1      3.70%     51.85% |           1      3.70%     55.56% |           1      3.70%     59.26% |           1      3.70%     62.96% |           1      3.70%     66.67% |           1      3.70%     70.37% |           1      3.70%     74.07% |           1      3.70%     77.78% |           1      3.70%     81.48% |           1      3.70%     85.19% |           1      3.70%     88.89% |           1      3.70%     92.59% |           1      3.70%     96.30% |           1      3.70%    100.00% (Unspecified)
board.cache_hierarchy.ruby_system.L1Cache_Controller.E.L1_Replacement::total           27                       (Unspecified)
board.cache_hierarchy.ruby_system.L1Cache_Controller.E.Fwd_GETS |           6      0.33%      0.33% |         363     19.93%     20.26% |           1      0.05%     20.32% |           1      0.05%     20.37% |           1      0.05%     20.43% |           1      0.05%     20.48% |           2      0.11%     20.59% |           1      0.05%     20.65% |           1      0.05%     20.70% |           1      0.05%     20.76% |           1      0.05%     20.81% |           1      0.05%     20.87% |           1      0.05%     20.92% |        1440     79.08%    100.00% |           0      0.00%    100.00% |           0      0.00%    100.00% |           0      0.00%    100.00% (Unspecified)
board.cache_hierarchy.ruby_system.L1Cache_Controller.E.Fwd_GETS::total         1821                       (Unspecified)
board.cache_hierarchy.ruby_system.L1Cache_Controller.M.Load |       11400      4.62%      4.62% |       14748      5.97%     10.59% |       14722      5.96%     16.55% |       14719      5.96%     22.50% |       14723      5.96%     28.46% |       14738      5.97%     34.43% |       14725      5.96%     40.39% |       14751      5.97%     46.36% |       14703      5.95%     52.32% |       14724      5.96%     58.28% |       14712      5.96%     64.23% |       14704      5.95%     70.19% |       14720      5.96%     76.15% |       14725      5.96%     82.11% |       14731      5.96%     88.07% |       14737      5.97%     94.04% |       14731      5.96%    100.00% (Unspecified)
board.cache_hierarchy.ruby_system.L1Cache_Controller.M.Load::total       247013                       (Unspecified)
board.cache_hierarchy.ruby_system.L1Cache_Controller.M.Store |       22381      9.87%      9.87% |       12743      5.62%     15.49% |       12697      5.60%     21.09% |       12699      5.60%     26.70% |       12697      5.60%     32.30% |       12697      5.60%     37.90% |       12697      5.60%     43.50% |       12696      5.60%     49.10% |       12695      5.60%     54.70% |       12696      5.60%     60.30% |       12694      5.60%     65.90% |       12698      5.60%     71.50% |       12704      5.60%     77.10% |       13005      5.74%     82.84% |       12959      5.72%     88.55% |       12959      5.72%     94.27% |       12988      5.73%    100.00% (Unspecified)
board.cache_hierarchy.ruby_system.L1Cache_Controller.M.Store::total       226705                       (Unspecified)
board.cache_hierarchy.ruby_system.L1Cache_Controller.M.L1_Replacement |         340     62.16%     62.16% |          12      2.19%     64.35% |          13      2.38%     66.73% |          13      2.38%     69.10% |          13      2.38%     71.48% |          13      2.38%     73.86% |          13      2.38%     76.23% |          13      2.38%     78.61% |          13      2.38%     80.99% |          13      2.38%     83.36% |          13      2.38%     85.74% |          13      2.38%     88.12% |          13      2.38%     90.49% |          13      2.38%     92.87% |          13      2.38%     95.25% |          13      2.38%     97.62% |          13      2.38%    100.00% (Unspecified)
board.cache_hierarchy.ruby_system.L1Cache_Controller.M.L1_Replacement::total          547                       (Unspecified)
board.cache_hierarchy.ruby_system.L1Cache_Controller.M.Fwd_GETX |          38      0.12%      0.12% |        2015      6.14%      6.25% |        2061      6.28%     12.53% |        2059      6.27%     18.80% |        2061      6.28%     25.08% |        2061      6.28%     31.36% |        2061      6.28%     37.64% |        2061      6.28%     43.92% |        2061      6.28%     50.19% |        2049      6.24%     56.44% |        2050      6.24%     62.68% |        2047      6.24%     68.92% |        2039      6.21%     75.13% |        2014      6.14%     81.26% |        2061      6.28%     87.54% |        2061      6.28%     93.82% |        2029      6.18%    100.00% (Unspecified)
board.cache_hierarchy.ruby_system.L1Cache_Controller.M.Fwd_GETX::total        32828                       (Unspecified)
board.cache_hierarchy.ruby_system.L1Cache_Controller.M.Fwd_GETS |         401     71.35%     71.35% |          11      1.96%     73.31% |          10      1.78%     75.09% |          10      1.78%     76.87% |          10      1.78%     78.65% |          10      1.78%     80.43% |          10      1.78%     82.21% |          11      1.96%     84.16% |          12      2.14%     86.30% |           7      1.25%     87.54% |           8      1.42%     88.97% |           7      1.25%     90.21% |           7      1.25%     91.46% |          12      2.14%     93.59% |          11      1.96%     95.55% |          11      1.96%     97.51% |          14      2.49%    100.00% (Unspecified)
board.cache_hierarchy.ruby_system.L1Cache_Controller.M.Fwd_GETS::total          562                       (Unspecified)
board.cache_hierarchy.ruby_system.L1Cache_Controller.IS.Data_Exclusive |          74      3.53%      3.53% |         375     17.87%     21.39% |          15      0.71%     22.11% |          13      0.62%     22.73% |          14      0.67%     23.39% |          14      0.67%     24.06% |          15      0.71%     24.77% |          14      0.67%     25.44% |          14      0.67%     26.11% |          16      0.76%     26.87% |          14      0.67%     27.54% |          14      0.67%     28.20% |          14      0.67%     28.87% |        1453     69.22%     98.09% |          13      0.62%     98.71% |          14      0.67%     99.38% |          13      0.62%    100.00% (Unspecified)
board.cache_hierarchy.ruby_system.L1Cache_Controller.IS.Data_Exclusive::total         2099                       (Unspecified)
board.cache_hierarchy.ruby_system.L1Cache_Controller.IS.DataS_fromL1 |          45      1.89%      1.89% |          42      1.76%      3.65% |         306     12.84%     16.49% |          17      0.71%     17.21% |          18      0.76%     17.96% |          18      0.76%     18.72% |          16      0.67%     19.39% |          18      0.76%     20.14% |          20      0.84%     20.98% |          20      0.84%     21.82% |          18      0.76%     22.58% |          20      0.84%     23.42% |          16      0.67%     24.09% |         345     14.48%     38.56% |        1432     60.09%     98.66% |          16      0.67%     99.33% |          16      0.67%    100.00% (Unspecified)
board.cache_hierarchy.ruby_system.L1Cache_Controller.IS.DataS_fromL1::total         2383                       (Unspecified)
board.cache_hierarchy.ruby_system.L1Cache_Controller.IS.Data_all_Acks |         377      1.17%      1.17% |        1834      5.70%      6.87% |        1932      6.00%     12.87% |        2221      6.90%     19.77% |        2221      6.90%     26.67% |        2227      6.92%     33.59% |        2221      6.90%     40.49% |        2228      6.92%     47.42% |        2221      6.90%     54.32% |        2230      6.93%     61.25% |        2224      6.91%     68.16% |        2223      6.91%     75.06% |        2226      6.92%     81.98% |         476      1.48%     83.46% |         830      2.58%     86.04% |        2248      6.98%     93.02% |        2246      6.98%    100.00% (Unspecified)
board.cache_hierarchy.ruby_system.L1Cache_Controller.IS.Data_all_Acks::total        32185                       (Unspecified)
board.cache_hierarchy.ruby_system.L1Cache_Controller.IM.Data |           0      0.00%      0.00% |           0      0.00%      0.00% |           0      0.00%      0.00% |           0      0.00%      0.00% |           0      0.00%      0.00% |           0      0.00%      0.00% |           0      0.00%      0.00% |           0      0.00%      0.00% |           0      0.00%      0.00% |           0      0.00%      0.00% |           1     50.00%     50.00% |           0      0.00%     50.00% |           0      0.00%     50.00% |           1     50.00%    100.00% |           0      0.00%    100.00% |           0      0.00%    100.00% |           0      0.00%    100.00% (Unspecified)
board.cache_hierarchy.ruby_system.L1Cache_Controller.IM.Data::total            2                       (Unspecified)
board.cache_hierarchy.ruby_system.L1Cache_Controller.IM.Data_all_Acks |         396      1.18%      1.18% |        2029      6.04%      7.22% |        2074      6.17%     13.39% |        2073      6.17%     19.56% |        2074      6.17%     25.74% |        2076      6.18%     31.92% |        2075      6.18%     38.10% |        2076      6.18%     44.28% |        2075      6.18%     50.45% |        2075      6.18%     56.63% |        2075      6.18%     62.81% |        2073      6.17%     68.98% |        2067      6.15%     75.13% |        2060      6.13%     81.27% |        2107      6.27%     87.54% |        2107      6.27%     93.81% |        2079      6.19%    100.00% (Unspecified)
board.cache_hierarchy.ruby_system.L1Cache_Controller.IM.Data_all_Acks::total        33591                       (Unspecified)
board.cache_hierarchy.ruby_system.L1Cache_Controller.SM.Ack |          32     12.85%     12.85% |          13      5.22%     18.07% |          14      5.62%     23.69% |          13      5.22%     28.92% |          13      5.22%     34.14% |          12      4.82%     38.96% |          14      5.62%     44.58% |          14      5.62%     50.20% |          14      5.62%     55.82% |          18      7.23%     63.05% |          21      8.43%     71.49% |          15      6.02%     77.51% |          16      6.43%     83.94% |          11      4.42%     88.35% |          11      4.42%     92.77% |           9      3.61%     96.39% |           9      3.61%    100.00% (Unspecified)
board.cache_hierarchy.ruby_system.L1Cache_Controller.SM.Ack::total          249                       (Unspecified)
board.cache_hierarchy.ruby_system.L1Cache_Controller.SM.Ack_all |          28     12.44%     12.44% |          13      5.78%     18.22% |          13      5.78%     24.00% |          13      5.78%     29.78% |          13      5.78%     35.56% |          12      5.33%     40.89% |          13      5.78%     46.67% |          13      5.78%     52.44% |          14      6.22%     58.67% |          13      5.78%     64.44% |          15      6.67%     71.11% |          13      5.78%     76.89% |          13      5.78%     82.67% |          11      4.89%     87.56% |          10      4.44%     92.00% |           9      4.00%     96.00% |           9      4.00%    100.00% (Unspecified)
board.cache_hierarchy.ruby_system.L1Cache_Controller.SM.Ack_all::total          225                       (Unspecified)
board.cache_hierarchy.ruby_system.L1Cache_Controller.M_I.WB_Ack |         351     61.15%     61.15% |          13      2.26%     63.41% |          14      2.44%     65.85% |          14      2.44%     68.29% |          14      2.44%     70.73% |          14      2.44%     73.17% |          14      2.44%     75.61% |          14      2.44%     78.05% |          14      2.44%     80.49% |          14      2.44%     82.93% |          14      2.44%     85.37% |          14      2.44%     87.80% |          14      2.44%     90.24% |          14      2.44%     92.68% |          14      2.44%     95.12% |          14      2.44%     97.56% |          14      2.44%    100.00% (Unspecified)
board.cache_hierarchy.ruby_system.L1Cache_Controller.M_I.WB_Ack::total          574                       (Unspecified)
board.cache_hierarchy.ruby_system.L2Cache_Controller.L1_GET_INSTR |         135      4.51%      4.51% |         166      5.54%     10.05% |         219      7.31%     17.37% |         245      8.18%     25.55% |         215      7.18%     32.73% |         180      6.01%     38.74% |         203      6.78%     45.52% |         152      5.08%     50.60% |         200      6.68%     57.28% |         202      6.75%     64.03% |         190      6.35%     70.37% |         208      6.95%     77.32% |         215      7.18%     84.50% |         202      6.75%     91.25% |         152      5.08%     96.33% |         110      3.67%    100.00% (Unspecified)
board.cache_hierarchy.ruby_system.L2Cache_Controller.L1_GET_INSTR::total         2994                       (Unspecified)
board.cache_hierarchy.ruby_system.L2Cache_Controller.L1_GETS |        2068      6.14%      6.14% |        2154      6.40%     12.53% |        2135      6.34%     18.87% |        2140      6.35%     25.23% |        2120      6.29%     31.52% |        2121      6.30%     37.82% |        2107      6.26%     44.07% |        2079      6.17%     50.25% |        2076      6.16%     56.41% |        2123      6.30%     62.71% |        2133      6.33%     69.05% |        2053      6.10%     75.14% |        2085      6.19%     81.33% |        2080      6.18%     87.51% |        2107      6.26%     93.76% |        2101      6.24%    100.00% (Unspecified)
board.cache_hierarchy.ruby_system.L2Cache_Controller.L1_GETS::total        33682                       (Unspecified)
board.cache_hierarchy.ruby_system.L2Cache_Controller.L1_GETX |      256897     91.20%     91.20% |       23930      8.49%     99.69% |          52      0.02%     99.71% |          53      0.02%     99.73% |          89      0.03%     99.76% |         112      0.04%     99.80% |          76      0.03%     99.83% |          80      0.03%     99.85% |          80      0.03%     99.88% |          47      0.02%     99.90% |          50      0.02%     99.92% |          32      0.01%     99.93% |          64      0.02%     99.95% |          63      0.02%     99.97% |          43      0.02%     99.99% |          30      0.01%    100.00% (Unspecified)
board.cache_hierarchy.ruby_system.L2Cache_Controller.L1_GETX::total       281698                       (Unspecified)
board.cache_hierarchy.ruby_system.L2Cache_Controller.L1_UPGRADE |           1      0.44%      0.44% |          55     24.44%     24.89% |          29     12.89%     37.78% |          14      6.22%     44.00% |          12      5.33%     49.33% |          33     14.67%     64.00% |           4      1.78%     65.78% |           5      2.22%     68.00% |           2      0.89%     68.89% |           2      0.89%     69.78% |          33     14.67%     84.44% |           0      0.00%     84.44% |          14      6.22%     90.67% |           3      1.33%     92.00% |          17      7.56%     99.56% |           1      0.44%    100.00% (Unspecified)
board.cache_hierarchy.ruby_system.L2Cache_Controller.L1_UPGRADE::total          225                       (Unspecified)
board.cache_hierarchy.ruby_system.L2Cache_Controller.L1_PUTX |          24      4.18%      4.18% |          49      8.54%     12.72% |          31      5.40%     18.12% |          43      7.49%     25.61% |          62     10.80%     36.41% |          63     10.98%     47.39% |          46      8.01%     55.40% |          47      8.19%     63.59% |          47      8.19%     71.78% |          31      5.40%     77.18% |          31      5.40%     82.58% |          11      1.92%     84.49% |          27      4.70%     89.20% |          39      6.79%     95.99% |          15      2.61%     98.61% |           8      1.39%    100.00% (Unspecified)
board.cache_hierarchy.ruby_system.L2Cache_Controller.L1_PUTX::total          574                       (Unspecified)
board.cache_hierarchy.ruby_system.L2Cache_Controller.Mem_Data |          59      5.15%      5.15% |          74      6.46%     11.61% |          77      6.72%     18.32% |          79      6.89%     25.22% |          93      8.12%     33.33% |          94      8.20%     41.54% |          72      6.28%     47.82% |          69      6.02%     53.84% |          72      6.28%     60.12% |          76      6.63%     66.75% |          60      5.24%     71.99% |          43      3.75%     75.74% |          65      5.67%     81.41% |          78      6.81%     88.22% |          67      5.85%     94.07% |          68      5.93%    100.00% (Unspecified)
board.cache_hierarchy.ruby_system.L2Cache_Controller.Mem_Data::total         1146                       (Unspecified)
board.cache_hierarchy.ruby_system.L2Cache_Controller.WB_Data |          23      4.09%      4.09% |          86     15.30%     19.40% |          62     11.03%     30.43% |          34      6.05%     36.48% |          29      5.16%     41.64% |          59     10.50%     52.14% |          19      3.38%     55.52% |          21      3.74%     59.25% |          20      3.56%     62.81% |          38      6.76%     69.57% |          48      8.54%     78.11% |          19      3.38%     81.49% |          27      4.80%     86.30% |          18      3.20%     89.50% |          34      6.05%     95.55% |          25      4.45%    100.00% (Unspecified)
board.cache_hierarchy.ruby_system.L2Cache_Controller.WB_Data::total          562                       (Unspecified)
board.cache_hierarchy.ruby_system.L2Cache_Controller.WB_Data_clean |         108      5.93%      5.93% |         111      6.10%     12.03% |         114      6.26%     18.29% |         126      6.92%     25.21% |         114      6.26%     31.47% |         118      6.48%     37.95% |         116      6.37%     44.32% |         113      6.21%     50.52% |         112      6.15%     56.67% |         112      6.15%     62.82% |         114      6.26%     69.08% |         109      5.99%     75.07% |         116      6.37%     81.44% |         116      6.37%     87.81% |         115      6.32%     94.12% |         107      5.88%    100.00% (Unspecified)
board.cache_hierarchy.ruby_system.L2Cache_Controller.WB_Data_clean::total         1821                       (Unspecified)
board.cache_hierarchy.ruby_system.L2Cache_Controller.Unblock |         131      5.50%      5.50% |         197      8.27%     13.76% |         176      7.39%     21.15% |         160      6.71%     27.86% |         143      6.00%     33.86% |         177      7.43%     41.29% |         135      5.67%     46.96% |         134      5.62%     52.58% |         132      5.54%     58.12% |         150      6.29%     64.41% |         162      6.80%     71.21% |         128      5.37%     76.58% |         143      6.00%     82.58% |         134      5.62%     88.21% |         149      6.25%     94.46% |         132      5.54%    100.00% (Unspecified)
board.cache_hierarchy.ruby_system.L2Cache_Controller.Unblock::total         2383                       (Unspecified)
board.cache_hierarchy.ruby_system.L2Cache_Controller.Exclusive_Unblock |       24689     68.74%     68.74% |        8360     23.28%     92.02% |         213      0.59%     92.61% |         210      0.58%     93.20% |         253      0.70%     93.90% |         285      0.79%     94.70% |         219      0.61%     95.31% |         218      0.61%     95.91% |         216      0.60%     96.51% |         181      0.50%     97.02% |         201      0.56%     97.58% |         145      0.40%     97.98% |         199      0.55%     98.54% |         189      0.53%     99.06% |         180      0.50%     99.56% |         157      0.44%    100.00% (Unspecified)
board.cache_hierarchy.ruby_system.L2Cache_Controller.Exclusive_Unblock::total        35915                       (Unspecified)
board.cache_hierarchy.ruby_system.L2Cache_Controller.NP.L1_GET_INSTR |          25      6.54%      6.54% |          25      6.54%     13.09% |          26      6.81%     19.90% |          28      7.33%     27.23% |          26      6.81%     34.03% |          26      6.81%     40.84% |          19      4.97%     45.81% |          18      4.71%     50.52% |          20      5.24%     55.76% |          25      6.54%     62.30% |          24      6.28%     68.59% |          22      5.76%     74.35% |          28      7.33%     81.68% |          27      7.07%     88.74% |          21      5.50%     94.24% |          22      5.76%    100.00% (Unspecified)
board.cache_hierarchy.ruby_system.L2Cache_Controller.NP.L1_GET_INSTR::total          382                       (Unspecified)
board.cache_hierarchy.ruby_system.L2Cache_Controller.NP.L1_GETS |           0      0.00%      0.00% |           2      3.17%      3.17% |           0      0.00%      3.17% |           0      0.00%      3.17% |          16     25.40%     28.57% |           1      1.59%     30.16% |           2      3.17%     33.33% |           0      0.00%     33.33% |           1      1.59%     34.92% |          17     26.98%     61.90% |           2      3.17%     65.08% |           1      1.59%     66.67% |           1      1.59%     68.25% |           0      0.00%     68.25% |           3      4.76%     73.02% |          17     26.98%    100.00% (Unspecified)
board.cache_hierarchy.ruby_system.L2Cache_Controller.NP.L1_GETS::total           63                       (Unspecified)
board.cache_hierarchy.ruby_system.L2Cache_Controller.NP.L1_GETX |          34      4.85%      4.85% |          47      6.70%     11.55% |          51      7.28%     18.83% |          51      7.28%     26.11% |          51      7.28%     33.38% |          67      9.56%     42.94% |          51      7.28%     50.21% |          51      7.28%     57.49% |          51      7.28%     64.76% |          34      4.85%     69.61% |          34      4.85%     74.47% |          20      2.85%     77.32% |          36      5.14%     82.45% |          51      7.28%     89.73% |          43      6.13%     95.86% |          29      4.14%    100.00% (Unspecified)
board.cache_hierarchy.ruby_system.L2Cache_Controller.NP.L1_GETX::total          701                       (Unspecified)
board.cache_hierarchy.ruby_system.L2Cache_Controller.SS.L1_GET_INSTR |         110      4.21%      4.21% |         141      5.40%      9.61% |         193      7.39%     17.00% |         217      8.31%     25.31% |         189      7.24%     32.54% |         154      5.90%     38.44% |         184      7.04%     45.48% |         134      5.13%     50.61% |         180      6.89%     57.50% |         177      6.78%     64.28% |         166      6.36%     70.64% |         186      7.12%     77.76% |         187      7.16%     84.92% |         175      6.70%     91.62% |         131      5.02%     96.63% |          88      3.37%    100.00% (Unspecified)
board.cache_hierarchy.ruby_system.L2Cache_Controller.SS.L1_GET_INSTR::total         2612                       (Unspecified)
board.cache_hierarchy.ruby_system.L2Cache_Controller.SS.L1_GETS |        1812      6.21%      6.21% |        1811      6.20%     12.41% |        1827      6.26%     18.67% |        1837      6.29%     24.96% |        1825      6.25%     31.22% |        1804      6.18%     37.40% |        1833      6.28%     43.67% |        1812      6.21%     49.88% |        1810      6.20%     56.08% |        1841      6.31%     62.39% |        1843      6.31%     68.70% |        1812      6.21%     74.91% |        1821      6.24%     81.15% |        1822      6.24%     87.39% |        1838      6.30%     93.69% |        1843      6.31%    100.00% (Unspecified)
board.cache_hierarchy.ruby_system.L2Cache_Controller.SS.L1_GETS::total        29191                       (Unspecified)
board.cache_hierarchy.ruby_system.L2Cache_Controller.SS.L1_GETX |           0      0.00%      0.00% |           0      0.00%      0.00% |           0      0.00%      0.00% |           0      0.00%      0.00% |           1     50.00%     50.00% |           0      0.00%     50.00% |           0      0.00%     50.00% |           0      0.00%     50.00% |           0      0.00%     50.00% |           0      0.00%     50.00% |           1     50.00%    100.00% |           0      0.00%    100.00% |           0      0.00%    100.00% |           0      0.00%    100.00% |           0      0.00%    100.00% |           0      0.00%    100.00% (Unspecified)
board.cache_hierarchy.ruby_system.L2Cache_Controller.SS.L1_GETX::total            2                       (Unspecified)
board.cache_hierarchy.ruby_system.L2Cache_Controller.SS.L1_UPGRADE |           1      0.45%      0.45% |          55     24.66%     25.11% |          29     13.00%     38.12% |          14      6.28%     44.39% |          12      5.38%     49.78% |          33     14.80%     64.57% |           4      1.79%     66.37% |           5      2.24%     68.61% |           2      0.90%     69.51% |           2      0.90%     70.40% |          31     13.90%     84.30% |           0      0.00%     84.30% |          14      6.28%     90.58% |           3      1.35%     91.93% |          17      7.62%     99.55% |           1      0.45%    100.00% (Unspecified)
board.cache_hierarchy.ruby_system.L2Cache_Controller.SS.L1_UPGRADE::total          223                       (Unspecified)
board.cache_hierarchy.ruby_system.L2Cache_Controller.M.L1_GETS |         125      6.14%      6.14% |         144      7.07%     13.21% |         132      6.48%     19.70% |         143      7.02%     26.72% |         136      6.68%     33.40% |         139      6.83%     40.23% |         137      6.73%     46.95% |         133      6.53%     53.49% |         133      6.53%     60.02% |         115      5.65%     65.67% |         118      5.80%     71.46% |         112      5.50%     76.96% |         120      5.89%     82.86% |         123      6.04%     88.90% |         117      5.75%     94.65% |         109      5.35%    100.00% (Unspecified)
board.cache_hierarchy.ruby_system.L2Cache_Controller.M.L1_GETS::total         2036                       (Unspecified)
board.cache_hierarchy.ruby_system.L2Cache_Controller.M.L1_GETX |           2      3.23%      3.23% |           2      3.23%      6.45% |           1      1.61%      8.06% |           2      3.23%     11.29% |          20     32.26%     43.55% |          17     27.42%     70.97% |           1      1.61%     72.58% |           1      1.61%     74.19% |           1      1.61%     75.81% |           1      1.61%     77.42% |           1      1.61%     79.03% |           0      0.00%     79.03% |          12     19.35%     98.39% |           0      0.00%     98.39% |           0      0.00%     98.39% |           1      1.61%    100.00% (Unspecified)
board.cache_hierarchy.ruby_system.L2Cache_Controller.M.L1_GETX::total           62                       (Unspecified)
board.cache_hierarchy.ruby_system.L2Cache_Controller.MT.L1_GETS |         131      5.50%      5.50% |         197      8.27%     13.76% |         176      7.39%     21.15% |         160      6.71%     27.86% |         143      6.00%     33.86% |         177      7.43%     41.29% |         135      5.67%     46.96% |         134      5.62%     52.58% |         132      5.54%     58.12% |         150      6.29%     64.41% |         162      6.80%     71.21% |         128      5.37%     76.58% |         143      6.00%     82.58% |         134      5.62%     88.21% |         149      6.25%     94.46% |         132      5.54%    100.00% (Unspecified)
board.cache_hierarchy.ruby_system.L2Cache_Controller.MT.L1_GETS::total         2383                       (Unspecified)
board.cache_hierarchy.ruby_system.L2Cache_Controller.MT.L1_GETX |       24527     74.71%     74.71% |        8110     24.70%     99.42% |           0      0.00%     99.42% |           0      0.00%     99.42% |          17      0.05%     99.47% |          28      0.09%     99.56% |          24      0.07%     99.63% |          28      0.09%     99.71% |          28      0.09%     99.80% |          12      0.04%     99.84% |          14      0.04%     99.88% |          12      0.04%     99.91% |          16      0.05%     99.96% |          12      0.04%    100.00% |           0      0.00%    100.00% |           0      0.00%    100.00% (Unspecified)
board.cache_hierarchy.ruby_system.L2Cache_Controller.MT.L1_GETX::total        32828                       (Unspecified)
board.cache_hierarchy.ruby_system.L2Cache_Controller.MT.L1_PUTX |          24      4.18%      4.18% |          49      8.54%     12.72% |          31      5.40%     18.12% |          43      7.49%     25.61% |          62     10.80%     36.41% |          63     10.98%     47.39% |          46      8.01%     55.40% |          47      8.19%     63.59% |          47      8.19%     71.78% |          31      5.40%     77.18% |          31      5.40%     82.58% |          11      1.92%     84.49% |          27      4.70%     89.20% |          39      6.79%     95.99% |          15      2.61%     98.61% |           8      1.39%    100.00% (Unspecified)
board.cache_hierarchy.ruby_system.L2Cache_Controller.MT.L1_PUTX::total          574                       (Unspecified)
board.cache_hierarchy.ruby_system.L2Cache_Controller.ISS.Mem_Data |           0      0.00%      0.00% |           2      3.17%      3.17% |           0      0.00%      3.17% |           0      0.00%      3.17% |          16     25.40%     28.57% |           1      1.59%     30.16% |           2      3.17%     33.33% |           0      0.00%     33.33% |           1      1.59%     34.92% |          17     26.98%     61.90% |           2      3.17%     65.08% |           1      1.59%     66.67% |           1      1.59%     68.25% |           0      0.00%     68.25% |           3      4.76%     73.02% |          17     26.98%    100.00% (Unspecified)
board.cache_hierarchy.ruby_system.L2Cache_Controller.ISS.Mem_Data::total           63                       (Unspecified)
board.cache_hierarchy.ruby_system.L2Cache_Controller.IS.Mem_Data |          25      6.54%      6.54% |          25      6.54%     13.09% |          26      6.81%     19.90% |          28      7.33%     27.23% |          26      6.81%     34.03% |          26      6.81%     40.84% |          19      4.97%     45.81% |          18      4.71%     50.52% |          20      5.24%     55.76% |          25      6.54%     62.30% |          24      6.28%     68.59% |          22      5.76%     74.35% |          28      7.33%     81.68% |          27      7.07%     88.74% |          21      5.50%     94.24% |          22      5.76%    100.00% (Unspecified)
board.cache_hierarchy.ruby_system.L2Cache_Controller.IS.Mem_Data::total          382                       (Unspecified)
board.cache_hierarchy.ruby_system.L2Cache_Controller.IM.Mem_Data |          34      4.85%      4.85% |          47      6.70%     11.55% |          51      7.28%     18.83% |          51      7.28%     26.11% |          51      7.28%     33.38% |          67      9.56%     42.94% |          51      7.28%     50.21% |          51      7.28%     57.49% |          51      7.28%     64.76% |          34      4.85%     69.61% |          34      4.85%     74.47% |          20      2.85%     77.32% |          36      5.14%     82.45% |          51      7.28%     89.73% |          43      6.13%     95.86% |          29      4.14%    100.00% (Unspecified)
board.cache_hierarchy.ruby_system.L2Cache_Controller.IM.Mem_Data::total          701                       (Unspecified)
board.cache_hierarchy.ruby_system.L2Cache_Controller.SS_MB.L1_GETS |           0      0.00%      0.00% |           0      0.00%      0.00% |           0      0.00%      0.00% |           0      0.00%      0.00% |           0      0.00%      0.00% |           0      0.00%      0.00% |           0      0.00%      0.00% |           0      0.00%      0.00% |           0      0.00%      0.00% |           0      0.00%      0.00% |           5    100.00%    100.00% |           0      0.00%    100.00% |           0      0.00%    100.00% |           0      0.00%    100.00% |           0      0.00%    100.00% |           0      0.00%    100.00% (Unspecified)
board.cache_hierarchy.ruby_system.L2Cache_Controller.SS_MB.L1_GETS::total            5                       (Unspecified)
board.cache_hierarchy.ruby_system.L2Cache_Controller.SS_MB.Exclusive_Unblock |           1      0.44%      0.44% |          55     24.44%     24.89% |          29     12.89%     37.78% |          14      6.22%     44.00% |          13      5.78%     49.78% |          33     14.67%     64.44% |           4      1.78%     66.22% |           5      2.22%     68.44% |           2      0.89%     69.33% |           2      0.89%     70.22% |          32     14.22%     84.44% |           0      0.00%     84.44% |          14      6.22%     90.67% |           3      1.33%     92.00% |          17      7.56%     99.56% |           1      0.44%    100.00% (Unspecified)
board.cache_hierarchy.ruby_system.L2Cache_Controller.SS_MB.Exclusive_Unblock::total          225                       (Unspecified)
board.cache_hierarchy.ruby_system.L2Cache_Controller.MT_MB.L1_GETX |      232334     93.64%     93.64% |       15771      6.36%    100.00% |           0      0.00%    100.00% |           0      0.00%    100.00% |           0      0.00%    100.00% |           0      0.00%    100.00% |           0      0.00%    100.00% |           0      0.00%    100.00% |           0      0.00%    100.00% |           0      0.00%    100.00% |           0      0.00%    100.00% |           0      0.00%    100.00% |           0      0.00%    100.00% |           0      0.00%    100.00% |           0      0.00%    100.00% |           0      0.00%    100.00% (Unspecified)
board.cache_hierarchy.ruby_system.L2Cache_Controller.MT_MB.L1_GETX::total       248105                       (Unspecified)
board.cache_hierarchy.ruby_system.L2Cache_Controller.MT_MB.Exclusive_Unblock |       24688     69.17%     69.17% |        8305     23.27%     92.44% |         184      0.52%     92.96% |         196      0.55%     93.51% |         240      0.67%     94.18% |         252      0.71%     94.89% |         215      0.60%     95.49% |         213      0.60%     96.09% |         214      0.60%     96.69% |         179      0.50%     97.19% |         169      0.47%     97.66% |         145      0.41%     98.07% |         185      0.52%     98.59% |         186      0.52%     99.11% |         163      0.46%     99.56% |         156      0.44%    100.00% (Unspecified)
board.cache_hierarchy.ruby_system.L2Cache_Controller.MT_MB.Exclusive_Unblock::total        35690                       (Unspecified)
board.cache_hierarchy.ruby_system.L2Cache_Controller.MT_IIB.L1_GETS |           0      0.00%      0.00% |           0      0.00%      0.00% |           0      0.00%      0.00% |           0      0.00%      0.00% |           0      0.00%      0.00% |           0      0.00%      0.00% |           0      0.00%      0.00% |           0      0.00%      0.00% |           0      0.00%      0.00% |           0      0.00%      0.00% |           3     75.00%     75.00% |           0      0.00%     75.00% |           0      0.00%     75.00% |           1     25.00%    100.00% |           0      0.00%    100.00% |           0      0.00%    100.00% (Unspecified)
board.cache_hierarchy.ruby_system.L2Cache_Controller.MT_IIB.L1_GETS::total            4                       (Unspecified)
board.cache_hierarchy.ruby_system.L2Cache_Controller.MT_IIB.WB_Data |          22      4.14%      4.14% |          68     12.78%     16.92% |          61     11.47%     28.38% |          34      6.39%     34.77% |          28      5.26%     40.04% |          59     11.09%     51.13% |          19      3.57%     54.70% |          20      3.76%     58.46% |          20      3.76%     62.22% |          38      7.14%     69.36% |          41      7.71%     77.07% |          19      3.57%     80.64% |          27      5.08%     85.71% |          18      3.38%     89.10% |          34      6.39%     95.49% |          24      4.51%    100.00% (Unspecified)
board.cache_hierarchy.ruby_system.L2Cache_Controller.MT_IIB.WB_Data::total          532                       (Unspecified)
board.cache_hierarchy.ruby_system.L2Cache_Controller.MT_IIB.WB_Data_clean |         108      5.97%      5.97% |         110      6.08%     12.06% |         114      6.31%     18.36% |         115      6.36%     24.72% |         114      6.31%     31.03% |         118      6.53%     37.56% |         116      6.42%     43.97% |         113      6.25%     50.22% |         112      6.19%     56.42% |         112      6.19%     62.61% |         114      6.31%     68.92% |         109      6.03%     74.94% |         116      6.42%     81.36% |         116      6.42%     87.78% |         114      6.31%     94.08% |         107      5.92%    100.00% (Unspecified)
board.cache_hierarchy.ruby_system.L2Cache_Controller.MT_IIB.WB_Data_clean::total         1808                       (Unspecified)
board.cache_hierarchy.ruby_system.L2Cache_Controller.MT_IIB.Unblock |           1      2.33%      2.33% |          19     44.19%     46.51% |           1      2.33%     48.84% |          11     25.58%     74.42% |           1      2.33%     76.74% |           0      0.00%     76.74% |           0      0.00%     76.74% |           1      2.33%     79.07% |           0      0.00%     79.07% |           0      0.00%     79.07% |           7     16.28%     95.35% |           0      0.00%     95.35% |           0      0.00%     95.35% |           0      0.00%     95.35% |           1      2.33%     97.67% |           1      2.33%    100.00% (Unspecified)
board.cache_hierarchy.ruby_system.L2Cache_Controller.MT_IIB.Unblock::total           43                       (Unspecified)
board.cache_hierarchy.ruby_system.L2Cache_Controller.MT_IB.WB_Data |           1      3.33%      3.33% |          18     60.00%     63.33% |           1      3.33%     66.67% |           0      0.00%     66.67% |           1      3.33%     70.00% |           0      0.00%     70.00% |           0      0.00%     70.00% |           1      3.33%     73.33% |           0      0.00%     73.33% |           0      0.00%     73.33% |           7     23.33%     96.67% |           0      0.00%     96.67% |           0      0.00%     96.67% |           0      0.00%     96.67% |           0      0.00%     96.67% |           1      3.33%    100.00% (Unspecified)
board.cache_hierarchy.ruby_system.L2Cache_Controller.MT_IB.WB_Data::total           30                       (Unspecified)
board.cache_hierarchy.ruby_system.L2Cache_Controller.MT_IB.WB_Data_clean |           0      0.00%      0.00% |           1      7.69%      7.69% |           0      0.00%      7.69% |          11     84.62%     92.31% |           0      0.00%     92.31% |           0      0.00%     92.31% |           0      0.00%     92.31% |           0      0.00%     92.31% |           0      0.00%     92.31% |           0      0.00%     92.31% |           0      0.00%     92.31% |           0      0.00%     92.31% |           0      0.00%     92.31% |           0      0.00%     92.31% |           1      7.69%    100.00% |           0      0.00%    100.00% (Unspecified)
board.cache_hierarchy.ruby_system.L2Cache_Controller.MT_IB.WB_Data_clean::total           13                       (Unspecified)
board.cache_hierarchy.ruby_system.L2Cache_Controller.MT_SB.L1_UPGRADE |           0      0.00%      0.00% |           0      0.00%      0.00% |           0      0.00%      0.00% |           0      0.00%      0.00% |           0      0.00%      0.00% |           0      0.00%      0.00% |           0      0.00%      0.00% |           0      0.00%      0.00% |           0      0.00%      0.00% |           0      0.00%      0.00% |           2    100.00%    100.00% |           0      0.00%    100.00% |           0      0.00%    100.00% |           0      0.00%    100.00% |           0      0.00%    100.00% |           0      0.00%    100.00% (Unspecified)
board.cache_hierarchy.ruby_system.L2Cache_Controller.MT_SB.L1_UPGRADE::total            2                       (Unspecified)
board.cache_hierarchy.ruby_system.L2Cache_Controller.MT_SB.Unblock |         130      5.56%      5.56% |         178      7.61%     13.16% |         175      7.48%     20.64% |         149      6.37%     27.01% |         142      6.07%     33.08% |         177      7.56%     40.64% |         135      5.77%     46.41% |         133      5.68%     52.09% |         132      5.64%     57.74% |         150      6.41%     64.15% |         155      6.62%     70.77% |         128      5.47%     76.24% |         143      6.11%     82.35% |         134      5.73%     88.08% |         148      6.32%     94.40% |         131      5.60%    100.00% (Unspecified)
board.cache_hierarchy.ruby_system.L2Cache_Controller.MT_SB.Unblock::total         2340                       (Unspecified)
board.cache_hierarchy.ruby_system.RequestType.LD.latency_hist_seqr::bucket_size          128                       (Unspecified)
board.cache_hierarchy.ruby_system.RequestType.LD.latency_hist_seqr::max_bucket         1279                       (Unspecified)
board.cache_hierarchy.ruby_system.RequestType.LD.latency_hist_seqr::samples       283840                       (Unspecified)
board.cache_hierarchy.ruby_system.RequestType.LD.latency_hist_seqr::mean     7.560407                       (Unspecified)
board.cache_hierarchy.ruby_system.RequestType.LD.latency_hist_seqr::gmean     1.603849                       (Unspecified)
board.cache_hierarchy.ruby_system.RequestType.LD.latency_hist_seqr::stdev    18.582092                       (Unspecified)
board.cache_hierarchy.ruby_system.RequestType.LD.latency_hist_seqr |      283776     99.98%     99.98% |          57      0.02%    100.00% |           6      0.00%    100.00% |           0      0.00%    100.00% |           0      0.00%    100.00% |           1      0.00%    100.00% |           0      0.00%    100.00% |           0      0.00%    100.00% |           0      0.00%    100.00% |           0      0.00%    100.00% (Unspecified)
board.cache_hierarchy.ruby_system.RequestType.LD.latency_hist_seqr::total       283840                       (Unspecified)
board.cache_hierarchy.ruby_system.RequestType.LD.hit_latency_hist_seqr::bucket_size            1                       (Unspecified)
board.cache_hierarchy.ruby_system.RequestType.LD.hit_latency_hist_seqr::max_bucket            9                       (Unspecified)
board.cache_hierarchy.ruby_system.RequestType.LD.hit_latency_hist_seqr::samples       250167                       (Unspecified)
board.cache_hierarchy.ruby_system.RequestType.LD.hit_latency_hist_seqr::mean     1.000080                       (Unspecified)
board.cache_hierarchy.ruby_system.RequestType.LD.hit_latency_hist_seqr::gmean     1.000055                       (Unspecified)
board.cache_hierarchy.ruby_system.RequestType.LD.hit_latency_hist_seqr::stdev     0.008941                       (Unspecified)
board.cache_hierarchy.ruby_system.RequestType.LD.hit_latency_hist_seqr |           0      0.00%      0.00% |      250147     99.99%     99.99% |          20      0.01%    100.00% |           0      0.00%    100.00% |           0      0.00%    100.00% |           0      0.00%    100.00% |           0      0.00%    100.00% |           0      0.00%    100.00% |           0      0.00%    100.00% |           0      0.00%    100.00% (Unspecified)
board.cache_hierarchy.ruby_system.RequestType.LD.hit_latency_hist_seqr::total       250167                       (Unspecified)
board.cache_hierarchy.ruby_system.RequestType.LD.miss_latency_hist_seqr::bucket_size          128                       (Unspecified)
board.cache_hierarchy.ruby_system.RequestType.LD.miss_latency_hist_seqr::max_bucket         1279                       (Unspecified)
board.cache_hierarchy.ruby_system.RequestType.LD.miss_latency_hist_seqr::samples        33673                       (Unspecified)
board.cache_hierarchy.ruby_system.RequestType.LD.miss_latency_hist_seqr::mean    56.299082                       (Unspecified)
board.cache_hierarchy.ruby_system.RequestType.LD.miss_latency_hist_seqr::gmean    53.605162                       (Unspecified)
board.cache_hierarchy.ruby_system.RequestType.LD.miss_latency_hist_seqr::stdev    14.676012                       (Unspecified)
board.cache_hierarchy.ruby_system.RequestType.LD.miss_latency_hist_seqr |       33609     99.81%     99.81% |          57      0.17%     99.98% |           6      0.02%    100.00% |           0      0.00%    100.00% |           0      0.00%    100.00% |           1      0.00%    100.00% |           0      0.00%    100.00% |           0      0.00%    100.00% |           0      0.00%    100.00% |           0      0.00%    100.00% (Unspecified)
board.cache_hierarchy.ruby_system.RequestType.LD.miss_latency_hist_seqr::total        33673                       (Unspecified)
board.cache_hierarchy.ruby_system.RequestType.ST.latency_hist_seqr::bucket_size          128                       (Unspecified)
board.cache_hierarchy.ruby_system.RequestType.ST.latency_hist_seqr::max_bucket         1279                       (Unspecified)
board.cache_hierarchy.ruby_system.RequestType.ST.latency_hist_seqr::samples       193181                       (Unspecified)
[...]
board.processor.cores9.core.executeStats0.numStoreInsts        16961                       # Number of stores executed (Count)
board.processor.cores9.core.executeStats0.instRate     0.094558                       # Inst execution rate ((Count/Cycle))
board.processor.cores9.core.executeStats0.numCCRegReads        22880                       # Number of times the CC registers were read (Count)
board.processor.cores9.core.executeStats0.numCCRegWrites        38239                       # Number of times the CC registers were written (Count)
board.processor.cores9.core.executeStats0.numFpRegReads           20                       # Number of times the floating registers were read (Count)
board.processor.cores9.core.executeStats0.numFpRegWrites           10                       # Number of times the floating registers were written (Count)
board.processor.cores9.core.executeStats0.numIntRegReads       238394                       # Number of times the integer registers were read (Count)
board.processor.cores9.core.executeStats0.numIntRegWrites       141640                       # Number of times the integer registers were written (Count)
board.processor.cores9.core.executeStats0.numMemRefs        62863                       # Number of memory refs (Count)
board.processor.cores9.core.executeStats0.numMiscRegReads        86794                       # Number of times the Misc registers were read (Count)
board.processor.cores9.core.executeStats0.numMiscRegWrites            1                       # Number of times the Misc registers were written (Count)
board.processor.cores9.core.executeStats0.numVecAluAccesses            0                       # Number of vector alu accesses (Count)
board.processor.cores9.core.executeStats0.numDiscardedOps            0                       # Number of ops (including micro ops) which were discarded before commit (Count)
board.processor.cores9.core.fetch.predictedBranches        21042                       # Number of branches that fetch has predicted taken (Count)
board.processor.cores9.core.fetch.cycles      1889182                       # Number of cycles fetch has run and was not squashing or blocked (Cycle)
board.processor.cores9.core.fetch.squashCycles         4864                       # Number of cycles fetch has spent squashing (Cycle)
board.processor.cores9.core.fetch.miscStallCycles          170                       # Number of cycles fetch has spent waiting on interrupts, or bad addresses, or out of MSHRs (Cycle)
board.processor.cores9.core.fetch.pendingTrapStallCycles         1101                       # Number of stall cycles due to pending traps (Cycle)
board.processor.cores9.core.fetch.cacheLines        29508                       # Number of cache lines fetched (Count)
board.processor.cores9.core.fetch.icacheSquashes           76                       # Number of outstanding Icache misses that were squashed (Count)
board.processor.cores9.core.fetch.nisnDist::samples      1928659                       # Number of instructions fetched each cycle (Total) (Count)
board.processor.cores9.core.fetch.nisnDist::mean     0.188971                       # Number of instructions fetched each cycle (Total) (Count)
board.processor.cores9.core.fetch.nisnDist::stdev     1.135882                       # Number of instructions fetched each cycle (Total) (Count)
board.processor.cores9.core.fetch.nisnDist::underflows            0      0.00%      0.00% # Number of instructions fetched each cycle (Total) (Count)
board.processor.cores9.core.fetch.nisnDist::0      1863613     96.63%     96.63% # Number of instructions fetched each cycle (Total) (Count)
board.processor.cores9.core.fetch.nisnDist::1        12363      0.64%     97.27% # Number of instructions fetched each cycle (Total) (Count)
board.processor.cores9.core.fetch.nisnDist::2         2081      0.11%     97.38% # Number of instructions fetched each cycle (Total) (Count)
board.processor.cores9.core.fetch.nisnDist::3         6231      0.32%     97.70% # Number of instructions fetched each cycle (Total) (Count)
board.processor.cores9.core.fetch.nisnDist::4           76      0.00%     97.70% # Number of instructions fetched each cycle (Total) (Count)
board.processor.cores9.core.fetch.nisnDist::5         2203      0.11%     97.82% # Number of instructions fetched each cycle (Total) (Count)
board.processor.cores9.core.fetch.nisnDist::6         6265      0.32%     98.14% # Number of instructions fetched each cycle (Total) (Count)
board.processor.cores9.core.fetch.nisnDist::7         6283      0.33%     98.47% # Number of instructions fetched each cycle (Total) (Count)
board.processor.cores9.core.fetch.nisnDist::8        29544      1.53%    100.00% # Number of instructions fetched each cycle (Total) (Count)
board.processor.cores9.core.fetch.nisnDist::overflows            0      0.00%    100.00% # Number of instructions fetched each cycle (Total) (Count)
board.processor.cores9.core.fetch.nisnDist::min_value            0                       # Number of instructions fetched each cycle (Total) (Count)
board.processor.cores9.core.fetch.nisnDist::max_value            8                       # Number of instructions fetched each cycle (Total) (Count)
board.processor.cores9.core.fetch.nisnDist::total      1928659                       # Number of instructions fetched each cycle (Total) (Count)
board.processor.cores9.core.fetchStats0.numInsts       248722                       # Number of instructions fetched (thread level) (Count)
board.processor.cores9.core.fetchStats0.numOps            0                       # Number of ops (including micro ops) fetched (thread level) (Count)
board.processor.cores9.core.fetchStats0.fetchRate     0.128781                       # Number of inst fetches per cycle ((Count/Cycle))
board.processor.cores9.core.fetchStats0.numBranches        21663                       # Number of branches fetched (Count)
board.processor.cores9.core.fetchStats0.branchRate     0.011217                       # Number of branch fetches per cycle (Ratio)
board.processor.cores9.core.fetchStats0.icacheStallCycles        35774                       # ICache total stall cycles (Cycle)
board.processor.cores9.core.fetchStats0.numFetchSuspends            0                       # Number of times Execute suspended instruction fetching (Count)
board.processor.cores9.core.iew.idleCycles            0                       # Number of cycles IEW is idle (Cycle)
board.processor.cores9.core.iew.squashCycles         2318                       # Number of cycles IEW is squashing (Cycle)
board.processor.cores9.core.iew.blockCycles      1803337                       # Number of cycles IEW is blocking (Cycle)
board.processor.cores9.core.iew.unblockCycles         6239                       # Number of cycles IEW is unblocking (Cycle)
board.processor.cores9.core.iew.dispatchedInsts       263899                       # Number of instructions dispatched to IQ (Count)
board.processor.cores9.core.iew.dispSquashedInsts            2                       # Number of squashed instructions skipped by dispatch (Count)
board.processor.cores9.core.iew.dispLoadInsts        72779                       # Number of dispatched load instructions (Count)
board.processor.cores9.core.iew.dispStoreInsts        27326                       # Number of dispatched store instructions (Count)
board.processor.cores9.core.iew.dispNonSpecInsts         4130                       # Number of dispatched non-speculative instructions (Count)
board.processor.cores9.core.iew.iqFullEvents         2080                       # Number of times the IQ has become full, causing a stall (Count)
board.processor.cores9.core.iew.lsqFullEvents           55                       # Number of times the LSQ has become full, causing a stall (Count)
board.processor.cores9.core.iew.memOrderViolationEvents         2054                       # Number of memory order violations (Count)
board.processor.cores9.core.iew.predictedTakenIncorrect            8                       # Number of branches that were predicted taken incorrectly (Count)
board.processor.cores9.core.iew.predictedNotTakenIncorrect          256                       # Number of branches that were predicted not taken incorrectly (Count)
board.processor.cores9.core.iew.branchMispredicts          264                       # Number of branch mispredicts detected at execute (Count)
board.processor.cores9.core.iew.instsToCommit       182572                       # Cumulative count of insts sent to commit (Count)
board.processor.cores9.core.iew.writebackCount       182304                       # Cumulative count of insts written-back (Count)
board.processor.cores9.core.iew.producerInst       133104                       # Number of instructions producing a value (Count)
board.processor.cores9.core.iew.consumerInst       233677                       # Number of instructions consuming a value (Count)
board.processor.cores9.core.iew.wbRate       0.094392                       # Insts written-back per cycle ((Count/Cycle))
board.processor.cores9.core.iew.wbFanout     0.569607                       # Average fanout of values written-back ((Count/Count))
board.processor.cores9.core.interrupts.clk_domain.clock         5328                       # Clock period in ticks (Tick)
board.processor.cores9.core.lsq0.forwLoads         4271                       # Number of loads that had data forwarded from stores (Count)
board.processor.cores9.core.lsq0.squashedLoads        43541                       # Number of loads squashed (Count)
board.processor.cores9.core.lsq0.ignoredResponses            1                       # Number of memory responses ignored because the instruction is squashed (Count)
board.processor.cores9.core.lsq0.memOrderViolation         2054                       # Number of memory ordering violations (Count)
board.processor.cores9.core.lsq0.squashedStores        14598                       # Number of stores squashed (Count)
board.processor.cores9.core.lsq0.rescheduledLoads            0                       # Number of loads that were rescheduled (Count)
board.processor.cores9.core.lsq0.blockedByCache            2                       # Number of times an access to memory failed due to the cache being blocked (Count)
board.processor.cores9.core.lsq0.loadToUse::samples        29238                       # Distribution of cycle latency between the first time a load is issued and its completion (Unspecified)
board.processor.cores9.core.lsq0.loadToUse::mean    63.613380                       # Distribution of cycle latency between the first time a load is issued and its completion (Unspecified)
board.processor.cores9.core.lsq0.loadToUse::stdev   207.850805                       # Distribution of cycle latency between the first time a load is issued and its completion (Unspecified)
board.processor.cores9.core.lsq0.loadToUse::0-9        25068     85.74%     85.74% # Distribution of cycle latency between the first time a load is issued and its completion (Unspecified)
board.processor.cores9.core.lsq0.loadToUse::10-19          129      0.44%     86.18% # Distribution of cycle latency between the first time a load is issued and its completion (Unspecified)
board.processor.cores9.core.lsq0.loadToUse::20-29            2      0.01%     86.19% # Distribution of cycle latency between the first time a load is issued and its completion (Unspecified)
board.processor.cores9.core.lsq0.loadToUse::40-49            2      0.01%     86.19% # Distribution of cycle latency between the first time a load is issued and its completion (Unspecified)
board.processor.cores9.core.lsq0.loadToUse::50-59         1915      6.55%     92.74% # Distribution of cycle latency between the first time a load is issued and its completion (Unspecified)
board.processor.cores9.core.lsq0.loadToUse::60-69           49      0.17%     92.91% # Distribution of cycle latency between the first time a load is issued and its completion (Unspecified)
board.processor.cores9.core.lsq0.loadToUse::70-79            1      0.00%     92.91% # Distribution of cycle latency between the first time a load is issued and its completion (Unspecified)
board.processor.cores9.core.lsq0.loadToUse::80-89            9      0.03%     92.94% # Distribution of cycle latency between the first time a load is issued and its completion (Unspecified)
board.processor.cores9.core.lsq0.loadToUse::90-99            9      0.03%     92.97% # Distribution of cycle latency between the first time a load is issued and its completion (Unspecified)
board.processor.cores9.core.lsq0.loadToUse::100-109            1      0.00%     92.98% # Distribution of cycle latency between the first time a load is issued and its completion (Unspecified)
board.processor.cores9.core.lsq0.loadToUse::120-129            2      0.01%     92.99% # Distribution of cycle latency between the first time a load is issued and its completion (Unspecified)
board.processor.cores9.core.lsq0.loadToUse::150-159            1      0.00%     92.99% # Distribution of cycle latency between the first time a load is issued and its completion (Unspecified)
board.processor.cores9.core.lsq0.loadToUse::200-209            1      0.00%     92.99% # Distribution of cycle latency between the first time a load is issued and its completion (Unspecified)
board.processor.cores9.core.lsq0.loadToUse::210-219           12      0.04%     93.03% # Distribution of cycle latency between the first time a load is issued and its completion (Unspecified)
board.processor.cores9.core.lsq0.loadToUse::250-259            1      0.00%     93.04% # Distribution of cycle latency between the first time a load is issued and its completion (Unspecified)
board.processor.cores9.core.lsq0.loadToUse::280-289            1      0.00%     93.04% # Distribution of cycle latency between the first time a load is issued and its completion (Unspecified)
board.processor.cores9.core.lsq0.loadToUse::290-299           10      0.03%     93.07% # Distribution of cycle latency between the first time a load is issued and its completion (Unspecified)
board.processor.cores9.core.lsq0.loadToUse::overflows         2025      6.93%    100.00% # Distribution of cycle latency between the first time a load is issued and its completion (Unspecified)
board.processor.cores9.core.lsq0.loadToUse::min_value            2                       # Distribution of cycle latency between the first time a load is issued and its completion (Unspecified)
board.processor.cores9.core.lsq0.loadToUse::max_value          886                       # Distribution of cycle latency between the first time a load is issued and its completion (Unspecified)
board.processor.cores9.core.lsq0.loadToUse::total        29238                       # Distribution of cycle latency between the first time a load is issued and its completion (Unspecified)
board.processor.cores9.core.mmu.dtb.rdAccesses        45890                       # TLB accesses on read requests (Count)
board.processor.cores9.core.mmu.dtb.wrAccesses        16961                       # TLB accesses on write requests (Count)
board.processor.cores9.core.mmu.dtb.rdMisses          104                       # TLB misses on read requests (Count)
board.processor.cores9.core.mmu.dtb.wrMisses           15                       # TLB misses on write requests (Count)
board.processor.cores9.core.mmu.dtb.walker.power_state.pwrStateResidencyTicks::UNDEFINED    949807242                       # Cumulative time (in ticks) in various power states (Tick)
board.processor.cores9.core.mmu.itb.rdAccesses            0                       # TLB accesses on read requests (Count)
board.processor.cores9.core.mmu.itb.wrAccesses        29681                       # TLB accesses on write requests (Count)
board.processor.cores9.core.mmu.itb.rdMisses            0                       # TLB misses on read requests (Count)
board.processor.cores9.core.mmu.itb.wrMisses          223                       # TLB misses on write requests (Count)
board.processor.cores9.core.mmu.itb.walker.power_state.pwrStateResidencyTicks::UNDEFINED    949807242                       # Cumulative time (in ticks) in various power states (Tick)
board.processor.cores9.core.power_state.pwrStateResidencyTicks::ON    949807242                       # Cumulative time (in ticks) in various power states (Tick)
board.processor.cores9.core.rename.squashCycles         2318                       # Number of cycles rename is squashing (Cycle)
board.processor.cores9.core.rename.idleCycles        26281                       # Number of cycles rename is idle (Cycle)
board.processor.cores9.core.rename.blockCycles      1838402                       # Number of cycles rename is blocking (Cycle)
board.processor.cores9.core.rename.serializeStallCycles            0                       # count of cycles rename stalled for serializing inst (Cycle)
board.processor.cores9.core.rename.runCycles        36182                       # Number of cycles rename is running (Cycle)
board.processor.cores9.core.rename.unblockCycles        25476                       # Number of cycles rename is unblocking (Cycle)
board.processor.cores9.core.rename.renamedInsts       280594                       # Number of instructions processed by rename (Count)
board.processor.cores9.core.rename.ROBFullEvents            9                       # Number of times rename has blocked due to ROB full (Count)
board.processor.cores9.core.rename.IQFullEvents        20623                       # Number of times rename has blocked due to IQ full (Count)
board.processor.cores9.core.rename.LQFullEvents           94                       # Number of times rename has blocked due to LQ full (Count)
board.processor.cores9.core.rename.SQFullEvents          648                       # Number of times rename has blocked due to SQ full (Count)
board.processor.cores9.core.rename.renamedOperands       374043                       # Number of destination operands rename has renamed (Count)
board.processor.cores9.core.rename.lookups       853741                       # Number of register rename lookups that rename has made (Count)
board.processor.cores9.core.rename.intLookups       400925                       # Number of integer rename lookups (Count)
board.processor.cores9.core.rename.fpLookups           20                       # Number of floating rename lookups (Count)
board.processor.cores9.core.rename.committedMaps       147147                       # Number of HB maps that are committed (Count)
board.processor.cores9.core.rename.undoneMaps       226896                       # Number of HB maps that are undone due to squashing (Count)
board.processor.cores9.core.rename.serializing            0                       # count of serializing insts renamed (Count)
board.processor.cores9.core.rename.tempSerializing            0                       # count of temporary serializing insts renamed (Count)
board.processor.cores9.core.rename.skidInsts        45639                       # count of insts added to the skid buffer (Count)
board.processor.cores9.core.rob.reads         2168888                       # The number of ROB reads (Count)
board.processor.cores9.core.rob.writes         548539                       # The number of ROB writes (Count)
board.processor.cores9.core.thread_0.numInsts        71576                       # Number of Instructions committed (Count)
board.processor.cores9.core.thread_0.numOps       108575                       # Number of Ops committed (Count)
board.processor.cores9.core.thread_0.numMemRefs            0                       # Number of Memory References (Count)
board.workload.inst.arm                             0                       # number of arm instructions executed (Count)
board.workload.inst.quiesce                         0                       # number of quiesce instructions executed (Count)

---------- End Simulation Statistics   ----------
