
---------- Begin Simulation Statistics ----------
simSeconds                                   0.025908                       # Number of seconds simulated (Second)
simTicks                                  25907789000                       # Number of ticks simulated (Tick)
finalTick                                 25950722000                       # Number of ticks from beginning of simulation (restored from checkpoints and never reset) (Tick)
simFreq                                  1000000000000                       # The number of ticks per simulated second ((Tick/Second))
hostSeconds                                    264.71                       # Real time elapsed on the host (Second)
hostTickRate                                 97873343                       # The number of ticks simulated per host second (ticks/s) ((Tick/Second))
hostMemory                                    1371440                       # Number of bytes of host memory used (Byte)
simInsts                                     31756304                       # Number of instructions simulated (Count)
simOps                                       31756332                       # Number of ops (including micro ops) simulated (Count)
hostInstRate                                   119968                       # Simulator instruction rate (inst/s) ((Count/Second))
hostOpRate                                     119968                       # Simulator op (including micro ops) rate (op/s) ((Count/Second))
board.cache_hierarchy.ruby_system.delayHistogram::bucket_size           16                       # delay histogram for all message (Unspecified)
board.cache_hierarchy.ruby_system.delayHistogram::max_bucket          159                       # delay histogram for all message (Unspecified)
board.cache_hierarchy.ruby_system.delayHistogram::samples     18836327                       # delay histogram for all message (Unspecified)
board.cache_hierarchy.ruby_system.delayHistogram::mean     6.751893                       # delay histogram for all message (Unspecified)
board.cache_hierarchy.ruby_system.delayHistogram::stdev    16.895300                       # delay histogram for all message (Unspecified)
board.cache_hierarchy.ruby_system.delayHistogram |    16205702     86.03%     86.03% |      947206      5.03%     91.06% |      717205      3.81%     94.87% |      452694      2.40%     97.27% |      307688      1.63%     98.91% |      159544      0.85%     99.75% |       40607      0.22%     99.97% |        5324      0.03%    100.00% |         351      0.00%    100.00% |           6      0.00%    100.00% # delay histogram for all message (Unspecified)
board.cache_hierarchy.ruby_system.delayHistogram::total     18836327                       # delay histogram for all message (Unspecified)
board.cache_hierarchy.ruby_system.m_outstandReqHistSeqr::bucket_size            2                       (Unspecified)
board.cache_hierarchy.ruby_system.m_outstandReqHistSeqr::max_bucket           19                       (Unspecified)
board.cache_hierarchy.ruby_system.m_outstandReqHistSeqr::samples      8206818                       (Unspecified)
board.cache_hierarchy.ruby_system.m_outstandReqHistSeqr::mean     8.292191                       (Unspecified)
board.cache_hierarchy.ruby_system.m_outstandReqHistSeqr::gmean     6.414513                       (Unspecified)
board.cache_hierarchy.ruby_system.m_outstandReqHistSeqr::stdev     4.804266                       (Unspecified)
board.cache_hierarchy.ruby_system.m_outstandReqHistSeqr |      704059      8.58%      8.58% |     1073441     13.08%     21.66% |     1018490     12.41%     34.07% |      975546     11.89%     45.96% |      983547     11.98%     57.94% |      959419     11.69%     69.63% |      935234     11.40%     81.03% |      827581     10.08%     91.11% |      729501      8.89%    100.00% |           0      0.00%    100.00% (Unspecified)
board.cache_hierarchy.ruby_system.m_outstandReqHistSeqr::total      8206818                       (Unspecified)
board.cache_hierarchy.ruby_system.m_latencyHistSeqr::bucket_size          128                       (Unspecified)
board.cache_hierarchy.ruby_system.m_latencyHistSeqr::max_bucket         1279                       (Unspecified)
board.cache_hierarchy.ruby_system.m_latencyHistSeqr::samples      8218853                       (Unspecified)
board.cache_hierarchy.ruby_system.m_latencyHistSeqr::mean    32.493980                       (Unspecified)
board.cache_hierarchy.ruby_system.m_latencyHistSeqr::gmean     4.869769                       (Unspecified)
board.cache_hierarchy.ruby_system.m_latencyHistSeqr::stdev    62.755602                       (Unspecified)
board.cache_hierarchy.ruby_system.m_latencyHistSeqr |     7372264     89.70%     89.70% |      814808      9.91%     99.61% |       16176      0.20%     99.81% |         142      0.00%     99.81% |          76      0.00%     99.81% |        3033      0.04%     99.85% |       11499      0.14%     99.99% |         757      0.01%    100.00% |          97      0.00%    100.00% |           1      0.00%    100.00% (Unspecified)
board.cache_hierarchy.ruby_system.m_latencyHistSeqr::total      8218853                       (Unspecified)
board.cache_hierarchy.ruby_system.m_hitLatencyHistSeqr::bucket_size            8                       (Unspecified)
board.cache_hierarchy.ruby_system.m_hitLatencyHistSeqr::max_bucket           79                       (Unspecified)
board.cache_hierarchy.ruby_system.m_hitLatencyHistSeqr::samples      5050205                       (Unspecified)
board.cache_hierarchy.ruby_system.m_hitLatencyHistSeqr::mean     1.083131                       (Unspecified)
board.cache_hierarchy.ruby_system.m_hitLatencyHistSeqr::gmean     1.051444                       (Unspecified)
board.cache_hierarchy.ruby_system.m_hitLatencyHistSeqr::stdev     0.368309                       (Unspecified)
board.cache_hierarchy.ruby_system.m_hitLatencyHistSeqr |     5050198    100.00%    100.00% |           3      0.00%    100.00% |           1      0.00%    100.00% |           0      0.00%    100.00% |           0      0.00%    100.00% |           1      0.00%    100.00% |           0      0.00%    100.00% |           0      0.00%    100.00% |           1      0.00%    100.00% |           1      0.00%    100.00% (Unspecified)
board.cache_hierarchy.ruby_system.m_hitLatencyHistSeqr::total      5050205                       (Unspecified)
board.cache_hierarchy.ruby_system.m_missLatencyHistSeqr::bucket_size          128                       (Unspecified)
board.cache_hierarchy.ruby_system.m_missLatencyHistSeqr::max_bucket         1279                       (Unspecified)
board.cache_hierarchy.ruby_system.m_missLatencyHistSeqr::samples      3168648                       (Unspecified)
board.cache_hierarchy.ruby_system.m_missLatencyHistSeqr::mean    82.556729                       (Unspecified)
board.cache_hierarchy.ruby_system.m_missLatencyHistSeqr::gmean    56.045355                       (Unspecified)
board.cache_hierarchy.ruby_system.m_missLatencyHistSeqr::stdev    78.333151                       (Unspecified)
board.cache_hierarchy.ruby_system.m_missLatencyHistSeqr |     2322059     73.28%     73.28% |      814808     25.71%     99.00% |       16176      0.51%     99.51% |         142      0.00%     99.51% |          76      0.00%     99.51% |        3033      0.10%     99.61% |       11499      0.36%     99.97% |         757      0.02%    100.00% |          97      0.00%    100.00% |           1      0.00%    100.00% (Unspecified)
board.cache_hierarchy.ruby_system.m_missLatencyHistSeqr::total      3168648                       (Unspecified)
board.cache_hierarchy.ruby_system.delayVCHist.vnet_0::bucket_size            8                       # delay histogram for vnet_0 (Unspecified)
board.cache_hierarchy.ruby_system.delayVCHist.vnet_0::max_bucket           79                       # delay histogram for vnet_0 (Unspecified)
board.cache_hierarchy.ruby_system.delayVCHist.vnet_0::samples      9500315                       # delay histogram for vnet_0 (Unspecified)
board.cache_hierarchy.ruby_system.delayVCHist.vnet_0::mean     0.469460                       # delay histogram for vnet_0 (Unspecified)
board.cache_hierarchy.ruby_system.delayVCHist.vnet_0::stdev     1.826288                       # delay histogram for vnet_0 (Unspecified)
board.cache_hierarchy.ruby_system.delayVCHist.vnet_0 |     9208839     96.93%     96.93% |      274863      2.89%     99.83% |       14859      0.16%     99.98% |        1478      0.02%    100.00% |         213      0.00%    100.00% |          55      0.00%    100.00% |           6      0.00%    100.00% |           2      0.00%    100.00% |           0      0.00%    100.00% |           0      0.00%    100.00% # delay histogram for vnet_0 (Unspecified)
board.cache_hierarchy.ruby_system.delayVCHist.vnet_0::total      9500315                       # delay histogram for vnet_0 (Unspecified)
board.cache_hierarchy.ruby_system.delayVCHist.vnet_1::bucket_size           16                       # delay histogram for vnet_1 (Unspecified)
board.cache_hierarchy.ruby_system.delayVCHist.vnet_1::max_bucket          159                       # delay histogram for vnet_1 (Unspecified)
board.cache_hierarchy.ruby_system.delayVCHist.vnet_1::samples      9331549                       # delay histogram for vnet_1 (Unspecified)
board.cache_hierarchy.ruby_system.delayVCHist.vnet_1::mean    13.151171                       # delay histogram for vnet_1 (Unspecified)
board.cache_hierarchy.ruby_system.delayVCHist.vnet_1::stdev    22.173193                       # delay histogram for vnet_1 (Unspecified)
board.cache_hierarchy.ruby_system.delayVCHist.vnet_1 |     6717537     71.99%     71.99% |      930869      9.98%     81.96% |      716937      7.68%     89.65% |      452686      4.85%     94.50% |      307688      3.30%     97.79% |      159544      1.71%     99.50% |       40607      0.44%     99.94% |        5324      0.06%    100.00% |         351      0.00%    100.00% |           6      0.00%    100.00% # delay histogram for vnet_1 (Unspecified)
board.cache_hierarchy.ruby_system.delayVCHist.vnet_1::total      9331549                       # delay histogram for vnet_1 (Unspecified)
board.cache_hierarchy.ruby_system.delayVCHist.vnet_2::bucket_size            1                       # delay histogram for vnet_2 (Unspecified)
board.cache_hierarchy.ruby_system.delayVCHist.vnet_2::max_bucket            9                       # delay histogram for vnet_2 (Unspecified)
board.cache_hierarchy.ruby_system.delayVCHist.vnet_2::samples         4463                       # delay histogram for vnet_2 (Unspecified)
board.cache_hierarchy.ruby_system.delayVCHist.vnet_2::mean     0.012548                       # delay histogram for vnet_2 (Unspecified)
board.cache_hierarchy.ruby_system.delayVCHist.vnet_2::stdev     0.157935                       # delay histogram for vnet_2 (Unspecified)
board.cache_hierarchy.ruby_system.delayVCHist.vnet_2 |        4435     99.37%     99.37% |           0      0.00%     99.37% |          28      0.63%    100.00% |           0      0.00%    100.00% |           0      0.00%    100.00% |           0      0.00%    100.00% |           0      0.00%    100.00% |           0      0.00%    100.00% |           0      0.00%    100.00% |           0      0.00%    100.00% # delay histogram for vnet_2 (Unspecified)
board.cache_hierarchy.ruby_system.delayVCHist.vnet_2::total         4463                       # delay histogram for vnet_2 (Unspecified)
board.cache_hierarchy.ruby_system.Directory_Controller.Fetch |      749909     50.05%     50.05% |      748404     49.95%    100.00% (Unspecified)
board.cache_hierarchy.ruby_system.Directory_Controller.Fetch::total      1498313                       (Unspecified)
board.cache_hierarchy.ruby_system.Directory_Controller.Data |       77690     50.10%     50.10% |       77384     49.90%    100.00% (Unspecified)
board.cache_hierarchy.ruby_system.Directory_Controller.Data::total       155074                       (Unspecified)
board.cache_hierarchy.ruby_system.Directory_Controller.Memory_Data |      749911     50.05%     50.05% |      748404     49.95%    100.00% (Unspecified)
board.cache_hierarchy.ruby_system.Directory_Controller.Memory_Data::total      1498315                       (Unspecified)
board.cache_hierarchy.ruby_system.Directory_Controller.Memory_Ack |       77690     50.10%     50.10% |       77384     49.90%    100.00% (Unspecified)
board.cache_hierarchy.ruby_system.Directory_Controller.Memory_Ack::total       155074                       (Unspecified)
board.cache_hierarchy.ruby_system.Directory_Controller.CleanReplacement |      670739     50.04%     50.04% |      669548     49.96%    100.00% (Unspecified)
board.cache_hierarchy.ruby_system.Directory_Controller.CleanReplacement::total      1340287                       (Unspecified)
board.cache_hierarchy.ruby_system.Directory_Controller.I.Fetch |      749909     50.05%     50.05% |      748404     49.95%    100.00% (Unspecified)
board.cache_hierarchy.ruby_system.Directory_Controller.I.Fetch::total      1498313                       (Unspecified)
board.cache_hierarchy.ruby_system.Directory_Controller.M.Data |       77690     50.10%     50.10% |       77384     49.90%    100.00% (Unspecified)
board.cache_hierarchy.ruby_system.Directory_Controller.M.Data::total       155074                       (Unspecified)
board.cache_hierarchy.ruby_system.Directory_Controller.M.CleanReplacement |      670739     50.04%     50.04% |      669548     49.96%    100.00% (Unspecified)
board.cache_hierarchy.ruby_system.Directory_Controller.M.CleanReplacement::total      1340287                       (Unspecified)
board.cache_hierarchy.ruby_system.Directory_Controller.IM.Memory_Data |      749911     50.05%     50.05% |      748404     49.95%    100.00% (Unspecified)
board.cache_hierarchy.ruby_system.Directory_Controller.IM.Memory_Data::total      1498315                       (Unspecified)
board.cache_hierarchy.ruby_system.Directory_Controller.MI.Memory_Ack |       77690     50.10%     50.10% |       77384     49.90%    100.00% (Unspecified)
board.cache_hierarchy.ruby_system.Directory_Controller.MI.Memory_Ack::total       155074                       (Unspecified)
board.cache_hierarchy.ruby_system.L1Cache_Controller.Load      6969435      0.00%      0.00% (Unspecified)
board.cache_hierarchy.ruby_system.L1Cache_Controller.Ifetch       818472      0.00%      0.00% (Unspecified)
board.cache_hierarchy.ruby_system.L1Cache_Controller.Store       432990      0.00%      0.00% (Unspecified)
board.cache_hierarchy.ruby_system.L1Cache_Controller.Inv         4463      0.00%      0.00% (Unspecified)
board.cache_hierarchy.ruby_system.L1Cache_Controller.L1_Replacement      3165163      0.00%      0.00% (Unspecified)
board.cache_hierarchy.ruby_system.L1Cache_Controller.Data_Exclusive      3139160      0.00%      0.00% (Unspecified)
board.cache_hierarchy.ruby_system.L1Cache_Controller.Data_all_Acks        29488      0.00%      0.00% (Unspecified)
board.cache_hierarchy.ruby_system.L1Cache_Controller.WB_Ack      3164762      0.00%      0.00% (Unspecified)
board.cache_hierarchy.ruby_system.L1Cache_Controller.NP.Load      3137431      0.00%      0.00% (Unspecified)
board.cache_hierarchy.ruby_system.L1Cache_Controller.NP.Ifetch           63      0.00%      0.00% (Unspecified)
board.cache_hierarchy.ruby_system.L1Cache_Controller.NP.Store        27737      0.00%      0.00% (Unspecified)
board.cache_hierarchy.ruby_system.L1Cache_Controller.NP.Inv          201      0.00%      0.00% (Unspecified)
board.cache_hierarchy.ruby_system.L1Cache_Controller.I.Load         1729      0.00%      0.00% (Unspecified)
board.cache_hierarchy.ruby_system.L1Cache_Controller.I.Ifetch         1677      0.00%      0.00% (Unspecified)
board.cache_hierarchy.ruby_system.L1Cache_Controller.I.Store           10      0.00%      0.00% (Unspecified)
board.cache_hierarchy.ruby_system.L1Cache_Controller.I.L1_Replacement          350      0.00%      0.00% (Unspecified)
board.cache_hierarchy.ruby_system.L1Cache_Controller.S.Ifetch       816732      0.00%      0.00% (Unspecified)
board.cache_hierarchy.ruby_system.L1Cache_Controller.S.Inv         2184      0.00%      0.00% (Unspecified)
board.cache_hierarchy.ruby_system.L1Cache_Controller.S.L1_Replacement           40      0.00%      0.00% (Unspecified)
board.cache_hierarchy.ruby_system.L1Cache_Controller.E.Load      3510923      0.00%      0.00% (Unspecified)
board.cache_hierarchy.ruby_system.L1Cache_Controller.E.Store       136342      0.00%      0.00% (Unspecified)
board.cache_hierarchy.ruby_system.L1Cache_Controller.E.Inv         1856      0.00%      0.00% (Unspecified)
board.cache_hierarchy.ruby_system.L1Cache_Controller.E.L1_Replacement      3000653      0.00%      0.00% (Unspecified)
board.cache_hierarchy.ruby_system.L1Cache_Controller.M.Load       317311      0.00%      0.00% (Unspecified)
board.cache_hierarchy.ruby_system.L1Cache_Controller.M.Store       268897      0.00%      0.00% (Unspecified)
board.cache_hierarchy.ruby_system.L1Cache_Controller.M.Inv          215      0.00%      0.00% (Unspecified)
board.cache_hierarchy.ruby_system.L1Cache_Controller.M.L1_Replacement       164109      0.00%      0.00% (Unspecified)
board.cache_hierarchy.ruby_system.L1Cache_Controller.IS.L1_Replacement           11      0.00%      0.00% (Unspecified)
board.cache_hierarchy.ruby_system.L1Cache_Controller.IS.Data_Exclusive      3139160      0.00%      0.00% (Unspecified)
board.cache_hierarchy.ruby_system.L1Cache_Controller.IS.Data_all_Acks         1741      0.00%      0.00% (Unspecified)
board.cache_hierarchy.ruby_system.L1Cache_Controller.IM.Data_all_Acks        27747      0.00%      0.00% (Unspecified)
board.cache_hierarchy.ruby_system.L1Cache_Controller.M_I.Load         2041      0.00%      0.00% (Unspecified)
board.cache_hierarchy.ruby_system.L1Cache_Controller.M_I.Store            4      0.00%      0.00% (Unspecified)
board.cache_hierarchy.ruby_system.L1Cache_Controller.M_I.Inv            7      0.00%      0.00% (Unspecified)
board.cache_hierarchy.ruby_system.L1Cache_Controller.M_I.WB_Ack      3164755      0.00%      0.00% (Unspecified)
board.cache_hierarchy.ruby_system.L1Cache_Controller.SINK_WB_ACK.WB_Ack            7      0.00%      0.00% (Unspecified)
board.cache_hierarchy.ruby_system.L2Cache_Controller.L1_GET_INSTR |         664     36.17%     36.17% |         660     35.95%     72.11% |         331     18.03%     90.14% |         181      9.86%    100.00% (Unspecified)
board.cache_hierarchy.ruby_system.L2Cache_Controller.L1_GET_INSTR::total         1836                       (Unspecified)
board.cache_hierarchy.ruby_system.L2Cache_Controller.L1_GETS |      786320     25.05%     25.05% |      783798     24.97%     50.01% |      784804     25.00%     75.01% |      784461     24.99%    100.00% (Unspecified)
board.cache_hierarchy.ruby_system.L2Cache_Controller.L1_GETS::total      3139383                       (Unspecified)
board.cache_hierarchy.ruby_system.L2Cache_Controller.L1_GETX |        6961     25.08%     25.08% |        6932     24.98%     50.06% |        6952     25.05%     75.12% |        6905     24.88%    100.00% (Unspecified)
board.cache_hierarchy.ruby_system.L2Cache_Controller.L1_GETX::total        27750                       (Unspecified)
board.cache_hierarchy.ruby_system.L2Cache_Controller.L1_PUTX |      792542     25.04%     25.04% |      790338     24.97%     50.02% |      791105     25.00%     75.01% |      790770     24.99%    100.00% (Unspecified)
board.cache_hierarchy.ruby_system.L2Cache_Controller.L1_PUTX::total      3164755                       (Unspecified)
board.cache_hierarchy.ruby_system.L2Cache_Controller.L1_PUTX_old |           4     28.57%     28.57% |           0      0.00%     28.57% |           6     42.86%     71.43% |           4     28.57%    100.00% (Unspecified)
board.cache_hierarchy.ruby_system.L2Cache_Controller.L1_PUTX_old::total           14                       (Unspecified)
board.cache_hierarchy.ruby_system.L2Cache_Controller.L2_Replacement |       38993     25.16%     25.16% |       38616     24.92%     50.08% |       38716     24.98%     75.06% |       38659     24.94%    100.00% (Unspecified)
board.cache_hierarchy.ruby_system.L2Cache_Controller.L2_Replacement::total       154984                       (Unspecified)
board.cache_hierarchy.ruby_system.L2Cache_Controller.L2_Replacement_clean |      335559     25.03%     25.03% |      335261     25.01%     50.05% |      335039     25.00%     75.04% |      334518     24.96%    100.00% (Unspecified)
board.cache_hierarchy.ruby_system.L2Cache_Controller.L2_Replacement_clean::total      1340377                       (Unspecified)
board.cache_hierarchy.ruby_system.L2Cache_Controller.Mem_Data |      375302     25.05%     25.05% |      374609     25.00%     50.05% |      374490     24.99%     75.04% |      373914     24.96%    100.00% (Unspecified)
board.cache_hierarchy.ruby_system.L2Cache_Controller.Mem_Data::total      1498315                       (Unspecified)
board.cache_hierarchy.ruby_system.L2Cache_Controller.Mem_Ack |      374552     25.05%     25.05% |      373877     25.00%     50.05% |      373755     24.99%     75.04% |      373177     24.96%    100.00% (Unspecified)
board.cache_hierarchy.ruby_system.L2Cache_Controller.Mem_Ack::total      1495361                       (Unspecified)
board.cache_hierarchy.ruby_system.L2Cache_Controller.WB_Data |         202     93.95%     93.95% |           3      1.40%     95.35% |           4      1.86%     97.21% |           6      2.79%    100.00% (Unspecified)
board.cache_hierarchy.ruby_system.L2Cache_Controller.WB_Data::total          215                       (Unspecified)
board.cache_hierarchy.ruby_system.L2Cache_Controller.WB_Data_clean |           2     28.57%     28.57% |           0      0.00%     28.57% |           3     42.86%     71.43% |           2     28.57%    100.00% (Unspecified)
board.cache_hierarchy.ruby_system.L2Cache_Controller.WB_Data_clean::total            7                       (Unspecified)
board.cache_hierarchy.ruby_system.L2Cache_Controller.Ack_all |        1212     28.58%     28.58% |        1095     25.82%     54.40% |        1065     25.11%     79.51% |         869     20.49%    100.00% (Unspecified)
board.cache_hierarchy.ruby_system.L2Cache_Controller.Ack_all::total         4241                       (Unspecified)
board.cache_hierarchy.ruby_system.L2Cache_Controller.Exclusive_Unblock |      793202     25.05%     25.05% |      790682     24.97%     50.01% |      791702     25.00%     75.01% |      791321     24.99%    100.00% (Unspecified)
board.cache_hierarchy.ruby_system.L2Cache_Controller.Exclusive_Unblock::total      3166907                       (Unspecified)
board.cache_hierarchy.ruby_system.L2Cache_Controller.NP.L1_GET_INSTR |         614     35.57%     35.57% |         605     35.05%     70.63% |         329     19.06%     89.69% |         178     10.31%    100.00% (Unspecified)
board.cache_hierarchy.ruby_system.L2Cache_Controller.NP.L1_GET_INSTR::total         1726                       (Unspecified)
board.cache_hierarchy.ruby_system.L2Cache_Controller.NP.L1_GETS |      367995     25.04%     25.04% |      367330     24.99%     50.03% |      367480     25.00%     75.03% |      367063     24.97%    100.00% (Unspecified)
board.cache_hierarchy.ruby_system.L2Cache_Controller.NP.L1_GETS::total      1469868                       (Unspecified)
board.cache_hierarchy.ruby_system.L2Cache_Controller.NP.L1_GETX |        6692     25.05%     25.05% |        6673     24.97%     50.02% |        6681     25.00%     75.03% |        6673     24.97%    100.00% (Unspecified)
board.cache_hierarchy.ruby_system.L2Cache_Controller.NP.L1_GETX::total        26719                       (Unspecified)
board.cache_hierarchy.ruby_system.L2Cache_Controller.NP.L1_PUTX_old |           2     28.57%     28.57% |           0      0.00%     28.57% |           3     42.86%     71.43% |           2     28.57%    100.00% (Unspecified)
board.cache_hierarchy.ruby_system.L2Cache_Controller.NP.L1_PUTX_old::total            7                       (Unspecified)
board.cache_hierarchy.ruby_system.L2Cache_Controller.SS.L1_GET_INSTR |           6     46.15%     46.15% |           2     15.38%     61.54% |           2     15.38%     76.92% |           3     23.08%    100.00% (Unspecified)
board.cache_hierarchy.ruby_system.L2Cache_Controller.SS.L1_GET_INSTR::total           13                       (Unspecified)
board.cache_hierarchy.ruby_system.L2Cache_Controller.SS.L2_Replacement_clean |         777     32.58%     32.58% |         773     32.41%     64.99% |         490     20.55%     85.53% |         345     14.47%    100.00% (Unspecified)
board.cache_hierarchy.ruby_system.L2Cache_Controller.SS.L2_Replacement_clean::total         2385                       (Unspecified)
board.cache_hierarchy.ruby_system.L2Cache_Controller.M.L1_GETS |      418249     25.06%     25.06% |      416420     24.95%     50.00% |      417270     25.00%     75.00% |      417353     25.00%    100.00% (Unspecified)
board.cache_hierarchy.ruby_system.L2Cache_Controller.M.L1_GETS::total      1669292                       (Unspecified)
board.cache_hierarchy.ruby_system.L2Cache_Controller.M.L1_GETX |         266     25.88%     25.88% |         259     25.19%     51.07% |         271     26.36%     77.43% |         232     22.57%    100.00% (Unspecified)
board.cache_hierarchy.ruby_system.L2Cache_Controller.M.L1_GETX::total         1028                       (Unspecified)
board.cache_hierarchy.ruby_system.L2Cache_Controller.M.L2_Replacement |       38849     25.10%     25.10% |       38603     24.94%     50.04% |       38696     25.00%     75.04% |       38641     24.96%    100.00% (Unspecified)
board.cache_hierarchy.ruby_system.L2Cache_Controller.M.L2_Replacement::total       154789                       (Unspecified)
board.cache_hierarchy.ruby_system.L2Cache_Controller.M.L2_Replacement_clean |      334287     25.02%     25.02% |      334176     25.01%     50.03% |      333987     25.00%     75.03% |      333659     24.97%    100.00% (Unspecified)
board.cache_hierarchy.ruby_system.L2Cache_Controller.M.L2_Replacement_clean::total      1336109                       (Unspecified)
board.cache_hierarchy.ruby_system.L2Cache_Controller.MT.L1_PUTX |      792542     25.04%     25.04% |      790338     24.97%     50.02% |      791105     25.00%     75.01% |      790770     24.99%    100.00% (Unspecified)
board.cache_hierarchy.ruby_system.L2Cache_Controller.MT.L1_PUTX::total      3164755                       (Unspecified)
board.cache_hierarchy.ruby_system.L2Cache_Controller.MT.L2_Replacement |         144     73.85%     73.85% |          13      6.67%     80.51% |          20     10.26%     90.77% |          18      9.23%    100.00% (Unspecified)
board.cache_hierarchy.ruby_system.L2Cache_Controller.MT.L2_Replacement::total          195                       (Unspecified)
board.cache_hierarchy.ruby_system.L2Cache_Controller.MT.L2_Replacement_clean |         495     26.29%     26.29% |         312     16.57%     42.86% |         562     29.85%     72.70% |         514     27.30%    100.00% (Unspecified)
board.cache_hierarchy.ruby_system.L2Cache_Controller.MT.L2_Replacement_clean::total         1883                       (Unspecified)
board.cache_hierarchy.ruby_system.L2Cache_Controller.M_I.L1_GET_INSTR |          44     45.36%     45.36% |          53     54.64%    100.00% |           0      0.00%    100.00% |           0      0.00%    100.00% (Unspecified)
board.cache_hierarchy.ruby_system.L2Cache_Controller.M_I.L1_GET_INSTR::total           97                       (Unspecified)
board.cache_hierarchy.ruby_system.L2Cache_Controller.M_I.L1_GETS |          76     34.08%     34.08% |          48     21.52%     55.61% |          54     24.22%     79.82% |          45     20.18%    100.00% (Unspecified)
board.cache_hierarchy.ruby_system.L2Cache_Controller.M_I.L1_GETS::total          223                       (Unspecified)
board.cache_hierarchy.ruby_system.L2Cache_Controller.M_I.L1_GETX |           3    100.00%    100.00% |           0      0.00%    100.00% |           0      0.00%    100.00% |           0      0.00%    100.00% (Unspecified)
board.cache_hierarchy.ruby_system.L2Cache_Controller.M_I.L1_GETX::total            3                       (Unspecified)
board.cache_hierarchy.ruby_system.L2Cache_Controller.M_I.Mem_Ack |      374552     25.05%     25.05% |      373877     25.00%     50.05% |      373755     24.99%     75.04% |      373177     24.96%    100.00% (Unspecified)
board.cache_hierarchy.ruby_system.L2Cache_Controller.M_I.Mem_Ack::total      1495361                       (Unspecified)
board.cache_hierarchy.ruby_system.L2Cache_Controller.MT_I.L1_PUTX_old |           0      0.00%      0.00% |           0      0.00%      0.00% |           1     33.33%     33.33% |           2     66.67%    100.00% (Unspecified)
board.cache_hierarchy.ruby_system.L2Cache_Controller.MT_I.L1_PUTX_old::total            3                       (Unspecified)
board.cache_hierarchy.ruby_system.L2Cache_Controller.MT_I.WB_Data |         124     99.20%     99.20% |           0      0.00%     99.20% |           0      0.00%     99.20% |           1      0.80%    100.00% (Unspecified)
board.cache_hierarchy.ruby_system.L2Cache_Controller.MT_I.WB_Data::total          125                       (Unspecified)
board.cache_hierarchy.ruby_system.L2Cache_Controller.MT_I.WB_Data_clean |           0      0.00%      0.00% |           0      0.00%      0.00% |           1     33.33%     33.33% |           2     66.67%    100.00% (Unspecified)
board.cache_hierarchy.ruby_system.L2Cache_Controller.MT_I.WB_Data_clean::total            3                       (Unspecified)
board.cache_hierarchy.ruby_system.L2Cache_Controller.MT_I.Ack_all |          20     29.85%     29.85% |          13     19.40%     49.25% |          19     28.36%     77.61% |          15     22.39%    100.00% (Unspecified)
board.cache_hierarchy.ruby_system.L2Cache_Controller.MT_I.Ack_all::total           67                       (Unspecified)
board.cache_hierarchy.ruby_system.L2Cache_Controller.MCT_I.L1_PUTX_old |           2     50.00%     50.00% |           0      0.00%     50.00% |           2     50.00%    100.00% |           0      0.00%    100.00% (Unspecified)
board.cache_hierarchy.ruby_system.L2Cache_Controller.MCT_I.L1_PUTX_old::total            4                       (Unspecified)
board.cache_hierarchy.ruby_system.L2Cache_Controller.MCT_I.WB_Data |          78     86.67%     86.67% |           3      3.33%     90.00% |           4      4.44%     94.44% |           5      5.56%    100.00% (Unspecified)
board.cache_hierarchy.ruby_system.L2Cache_Controller.MCT_I.WB_Data::total           90                       (Unspecified)
board.cache_hierarchy.ruby_system.L2Cache_Controller.MCT_I.WB_Data_clean |           2     50.00%     50.00% |           0      0.00%     50.00% |           2     50.00%    100.00% |           0      0.00%    100.00% (Unspecified)
board.cache_hierarchy.ruby_system.L2Cache_Controller.MCT_I.WB_Data_clean::total            4                       (Unspecified)
board.cache_hierarchy.ruby_system.L2Cache_Controller.MCT_I.Ack_all |         415     23.20%     23.20% |         309     17.27%     40.47% |         556     31.08%     71.55% |         509     28.45%    100.00% (Unspecified)
board.cache_hierarchy.ruby_system.L2Cache_Controller.MCT_I.Ack_all::total         1789                       (Unspecified)
board.cache_hierarchy.ruby_system.L2Cache_Controller.I_I.Ack_all |         777     32.58%     32.58% |         773     32.41%     64.99% |         490     20.55%     85.53% |         345     14.47%    100.00% (Unspecified)
board.cache_hierarchy.ruby_system.L2Cache_Controller.I_I.Ack_all::total         2385                       (Unspecified)
board.cache_hierarchy.ruby_system.L2Cache_Controller.ISS.Mem_Data |      367995     25.04%     25.04% |      367330     24.99%     50.03% |      367480     25.00%     75.03% |      367063     24.97%    100.00% (Unspecified)
board.cache_hierarchy.ruby_system.L2Cache_Controller.ISS.Mem_Data::total      1469868                       (Unspecified)
board.cache_hierarchy.ruby_system.L2Cache_Controller.IS.Mem_Data |         615     35.59%     35.59% |         606     35.07%     70.66% |         329     19.04%     89.70% |         178     10.30%    100.00% (Unspecified)
board.cache_hierarchy.ruby_system.L2Cache_Controller.IS.Mem_Data::total         1728                       (Unspecified)
board.cache_hierarchy.ruby_system.L2Cache_Controller.IM.Mem_Data |        6692     25.05%     25.05% |        6673     24.97%     50.02% |        6681     25.00%     75.03% |        6673     24.97%    100.00% (Unspecified)
board.cache_hierarchy.ruby_system.L2Cache_Controller.IM.Mem_Data::total        26719                       (Unspecified)
board.cache_hierarchy.ruby_system.L2Cache_Controller.MT_MB.Exclusive_Unblock |      793202     25.05%     25.05% |      790682     24.97%     50.01% |      791702     25.00%     75.01% |      791321     24.99%    100.00% (Unspecified)
board.cache_hierarchy.ruby_system.L2Cache_Controller.MT_MB.Exclusive_Unblock::total      3166907                       (Unspecified)
board.cache_hierarchy.ruby_system.RequestType.LD.latency_hist_seqr::bucket_size          128                       (Unspecified)
board.cache_hierarchy.ruby_system.RequestType.LD.latency_hist_seqr::max_bucket         1279                       (Unspecified)
board.cache_hierarchy.ruby_system.RequestType.LD.latency_hist_seqr::samples      6967394                       (Unspecified)
board.cache_hierarchy.ruby_system.RequestType.LD.latency_hist_seqr::mean    37.613724                       (Unspecified)
board.cache_hierarchy.ruby_system.RequestType.LD.latency_hist_seqr::gmean     6.324748                       (Unspecified)
board.cache_hierarchy.ruby_system.RequestType.LD.latency_hist_seqr::stdev    66.213281                       (Unspecified)
board.cache_hierarchy.ruby_system.RequestType.LD.latency_hist_seqr |     6130554     87.99%     87.99% |      805769     11.56%     99.55% |       15741      0.23%     99.78% |         116      0.00%     99.78% |          76      0.00%     99.78% |        2990      0.04%     99.83% |       11298      0.16%     99.99% |         753      0.01%    100.00% |          97      0.00%    100.00% |           0      0.00%    100.00% (Unspecified)
board.cache_hierarchy.ruby_system.RequestType.LD.latency_hist_seqr::total      6967394                       (Unspecified)
board.cache_hierarchy.ruby_system.RequestType.LD.hit_latency_hist_seqr::bucket_size            1                       (Unspecified)
board.cache_hierarchy.ruby_system.RequestType.LD.hit_latency_hist_seqr::max_bucket            9                       (Unspecified)
board.cache_hierarchy.ruby_system.RequestType.LD.hit_latency_hist_seqr::samples      3828234                       (Unspecified)
board.cache_hierarchy.ruby_system.RequestType.LD.hit_latency_hist_seqr::mean     1.102000                       (Unspecified)
board.cache_hierarchy.ruby_system.RequestType.LD.hit_latency_hist_seqr::gmean     1.062864                       (Unspecified)
board.cache_hierarchy.ruby_system.RequestType.LD.hit_latency_hist_seqr::stdev     0.407861                       (Unspecified)
board.cache_hierarchy.ruby_system.RequestType.LD.hit_latency_hist_seqr |           0      0.00%      0.00% |     3557879     92.94%     92.94% |      173181      4.52%     97.46% |       74236      1.94%     99.40% |       22925      0.60%    100.00% |          13      0.00%    100.00% |           0      0.00%    100.00% |           0      0.00%    100.00% |           0      0.00%    100.00% |           0      0.00%    100.00% (Unspecified)
board.cache_hierarchy.ruby_system.RequestType.LD.hit_latency_hist_seqr::total      3828234                       (Unspecified)
board.cache_hierarchy.ruby_system.RequestType.LD.miss_latency_hist_seqr::bucket_size          128                       (Unspecified)
board.cache_hierarchy.ruby_system.RequestType.LD.miss_latency_hist_seqr::max_bucket         1279                       (Unspecified)
board.cache_hierarchy.ruby_system.RequestType.LD.miss_latency_hist_seqr::samples      3139160                       (Unspecified)
board.cache_hierarchy.ruby_system.RequestType.LD.miss_latency_hist_seqr::mean    82.140101                       (Unspecified)
board.cache_hierarchy.ruby_system.RequestType.LD.miss_latency_hist_seqr::gmean    55.671469                       (Unspecified)
board.cache_hierarchy.ruby_system.RequestType.LD.miss_latency_hist_seqr::stdev    78.244700                       (Unspecified)
board.cache_hierarchy.ruby_system.RequestType.LD.miss_latency_hist_seqr |     2302320     73.34%     73.34% |      805769     25.67%     99.01% |       15741      0.50%     99.51% |         116      0.00%     99.52% |          76      0.00%     99.52% |        2990      0.10%     99.61% |       11298      0.36%     99.97% |         753      0.02%    100.00% |          97      0.00%    100.00% |           0      0.00%    100.00% (Unspecified)
board.cache_hierarchy.ruby_system.RequestType.LD.miss_latency_hist_seqr::total      3139160                       (Unspecified)
board.cache_hierarchy.ruby_system.RequestType.ST.latency_hist_seqr::bucket_size          128                       (Unspecified)
board.cache_hierarchy.ruby_system.RequestType.ST.latency_hist_seqr::max_bucket         1279                       (Unspecified)
board.cache_hierarchy.ruby_system.RequestType.ST.latency_hist_seqr::samples       432986                       (Unspecified)
board.cache_hierarchy.ruby_system.RequestType.ST.latency_hist_seqr::mean     9.008104                       (Unspecified)
board.cache_hierarchy.ruby_system.RequestType.ST.latency_hist_seqr::gmean     1.410470                       (Unspecified)
board.cache_hierarchy.ruby_system.RequestType.ST.latency_hist_seqr::stdev    35.742179                       (Unspecified)
board.cache_hierarchy.ruby_system.RequestType.ST.latency_hist_seqr |      424655     98.08%     98.08% |        7653      1.77%     99.84% |         422      0.10%     99.94% |          26      0.01%     99.95% |           0      0.00%     99.95% |          40      0.01%     99.96% |         186      0.04%    100.00% |           3      0.00%    100.00% |           0      0.00%    100.00% |           1      0.00%    100.00% (Unspecified)
board.cache_hierarchy.ruby_system.RequestType.ST.latency_hist_seqr::total       432986                       (Unspecified)
board.cache_hierarchy.ruby_system.RequestType.ST.hit_latency_hist_seqr::bucket_size            8                       (Unspecified)
board.cache_hierarchy.ruby_system.RequestType.ST.hit_latency_hist_seqr::max_bucket           79                       (Unspecified)
board.cache_hierarchy.ruby_system.RequestType.ST.hit_latency_hist_seqr::samples       405239                       (Unspecified)
board.cache_hierarchy.ruby_system.RequestType.ST.hit_latency_hist_seqr::mean     1.064863                       (Unspecified)
board.cache_hierarchy.ruby_system.RequestType.ST.hit_latency_hist_seqr::gmean     1.045102                       (Unspecified)
board.cache_hierarchy.ruby_system.RequestType.ST.hit_latency_hist_seqr::stdev     0.306665                       (Unspecified)
board.cache_hierarchy.ruby_system.RequestType.ST.hit_latency_hist_seqr |      405232    100.00%    100.00% |           3      0.00%    100.00% |           1      0.00%    100.00% |           0      0.00%    100.00% |           0      0.00%    100.00% |           1      0.00%    100.00% |           0      0.00%    100.00% |           0      0.00%    100.00% |           1      0.00%    100.00% |           1      0.00%    100.00% (Unspecified)
board.cache_hierarchy.ruby_system.RequestType.ST.hit_latency_hist_seqr::total       405239                       (Unspecified)
board.cache_hierarchy.ruby_system.RequestType.ST.miss_latency_hist_seqr::bucket_size          128                       (Unspecified)
board.cache_hierarchy.ruby_system.RequestType.ST.miss_latency_hist_seqr::max_bucket         1279                       (Unspecified)
board.cache_hierarchy.ruby_system.RequestType.ST.miss_latency_hist_seqr::samples        27747                       (Unspecified)
board.cache_hierarchy.ruby_system.RequestType.ST.miss_latency_hist_seqr::mean   125.017443                       (Unspecified)
board.cache_hierarchy.ruby_system.RequestType.ST.miss_latency_hist_seqr::gmean   112.456007                       (Unspecified)
board.cache_hierarchy.ruby_system.RequestType.ST.miss_latency_hist_seqr::stdev    74.527114                       (Unspecified)
board.cache_hierarchy.ruby_system.RequestType.ST.miss_latency_hist_seqr |       19416     69.98%     69.98% |        7653     27.58%     97.56% |         422      1.52%     99.08% |          26      0.09%     99.17% |           0      0.00%     99.17% |          40      0.14%     99.32% |         186      0.67%     99.99% |           3      0.01%    100.00% |           0      0.00%    100.00% |           1      0.00%    100.00% (Unspecified)
board.cache_hierarchy.ruby_system.RequestType.ST.miss_latency_hist_seqr::total        27747                       (Unspecified)
board.cache_hierarchy.ruby_system.RequestType.IFETCH.latency_hist_seqr::bucket_size          128                       (Unspecified)
board.cache_hierarchy.ruby_system.RequestType.IFETCH.latency_hist_seqr::max_bucket         1279                       (Unspecified)
board.cache_hierarchy.ruby_system.RequestType.IFETCH.latency_hist_seqr::samples       818473                       (Unspecified)
board.cache_hierarchy.ruby_system.RequestType.IFETCH.latency_hist_seqr::mean     1.335698                       (Unspecified)
board.cache_hierarchy.ruby_system.RequestType.IFETCH.latency_hist_seqr::gmean     1.013236                       (Unspecified)
board.cache_hierarchy.ruby_system.RequestType.IFETCH.latency_hist_seqr::stdev     8.000203                       (Unspecified)
board.cache_hierarchy.ruby_system.RequestType.IFETCH.latency_hist_seqr |      817055     99.83%     99.83% |        1386      0.17%    100.00% |          13      0.00%    100.00% |           0      0.00%    100.00% |           0      0.00%    100.00% |           3      0.00%    100.00% |          15      0.00%    100.00% |           1      0.00%    100.00% |           0      0.00%    100.00% |           0      0.00%    100.00% (Unspecified)
board.cache_hierarchy.ruby_system.RequestType.IFETCH.latency_hist_seqr::total       818473                       (Unspecified)
board.cache_hierarchy.ruby_system.RequestType.IFETCH.hit_latency_hist_seqr::bucket_size            1                       (Unspecified)
board.cache_hierarchy.ruby_system.RequestType.IFETCH.hit_latency_hist_seqr::max_bucket            9                       (Unspecified)
board.cache_hierarchy.ruby_system.RequestType.IFETCH.hit_latency_hist_seqr::samples       816732                       (Unspecified)
board.cache_hierarchy.ruby_system.RequestType.IFETCH.hit_latency_hist_seqr::mean     1.003754                       (Unspecified)
board.cache_hierarchy.ruby_system.RequestType.IFETCH.hit_latency_hist_seqr::gmean     1.002530                       (Unspecified)
board.cache_hierarchy.ruby_system.RequestType.IFETCH.hit_latency_hist_seqr::stdev     0.065318                       (Unspecified)
board.cache_hierarchy.ruby_system.RequestType.IFETCH.hit_latency_hist_seqr |           0      0.00%      0.00% |      813880     99.65%     99.65% |        2639      0.32%     99.97% |         212      0.03%    100.00% |           1      0.00%    100.00% |           0      0.00%    100.00% |           0      0.00%    100.00% |           0      0.00%    100.00% |           0      0.00%    100.00% |           0      0.00%    100.00% (Unspecified)
board.cache_hierarchy.ruby_system.RequestType.IFETCH.hit_latency_hist_seqr::total       816732                       (Unspecified)
board.cache_hierarchy.ruby_system.RequestType.IFETCH.miss_latency_hist_seqr::bucket_size          128                       (Unspecified)
board.cache_hierarchy.ruby_system.RequestType.IFETCH.miss_latency_hist_seqr::max_bucket         1279                       (Unspecified)
board.cache_hierarchy.ruby_system.RequestType.IFETCH.miss_latency_hist_seqr::samples         1741                       (Unspecified)
board.cache_hierarchy.ruby_system.RequestType.IFETCH.miss_latency_hist_seqr::mean   157.056289                       (Unspecified)
board.cache_hierarchy.ruby_system.RequestType.IFETCH.miss_latency_hist_seqr::gmean   147.855586                       (Unspecified)
board.cache_hierarchy.ruby_system.RequestType.IFETCH.miss_latency_hist_seqr::stdev    76.089989                       (Unspecified)
board.cache_hierarchy.ruby_system.RequestType.IFETCH.miss_latency_hist_seqr |         323     18.55%     18.55% |        1386     79.61%     98.16% |          13      0.75%     98.91% |           0      0.00%     98.91% |           0      0.00%     98.91% |           3      0.17%     99.08% |          15      0.86%     99.94% |           1      0.06%    100.00% |           0      0.00%    100.00% |           0      0.00%    100.00% (Unspecified)
board.cache_hierarchy.ruby_system.RequestType.IFETCH.miss_latency_hist_seqr::total         1741                       (Unspecified)
board.cache_hierarchy.ruby_system.directory_controllers0.power_state.pwrStateResidencyTicks::UNDEFINED  25950722000                       # Cumulative time (in ticks) in various power states (Tick)
board.cache_hierarchy.ruby_system.directory_controllers0.requestToDir.m_msg_count       750477                       # Number of messages passed the buffer (Count)
board.cache_hierarchy.ruby_system.directory_controllers0.requestToDir.m_buf_msgs     0.014460                       # Average number of messages in buffer ((Count/Tick))
board.cache_hierarchy.ruby_system.directory_controllers0.requestToMemory.m_msg_count       828167                       # Number of messages passed the buffer (Count)
board.cache_hierarchy.ruby_system.directory_controllers0.requestToMemory.m_buf_msgs     0.017594                       # Average number of messages in buffer ((Count/Tick))
board.cache_hierarchy.ruby_system.directory_controllers0.requestToMemory.m_stall_time     42493000                       # Total number of ticks messages were stalled in this buffer (Tick)
board.cache_hierarchy.ruby_system.directory_controllers0.requestToMemory.m_avg_stall_time    51.309700                       # Average stall ticks per message ((Tick/Count))
board.cache_hierarchy.ruby_system.directory_controllers0.responseFromDir.m_msg_count      1498906                       # Number of messages passed the buffer (Count)
board.cache_hierarchy.ruby_system.directory_controllers0.responseFromDir.m_buf_msgs     0.028880                       # Average number of messages in buffer ((Count/Tick))
board.cache_hierarchy.ruby_system.directory_controllers0.responseFromMemory.m_msg_count       828167                       # Number of messages passed the buffer (Count)
board.cache_hierarchy.ruby_system.directory_controllers0.responseFromMemory.m_buf_msgs     0.020090                       # Average number of messages in buffer ((Count/Tick))
board.cache_hierarchy.ruby_system.directory_controllers0.responseToDir.m_msg_count       748429                       # Number of messages passed the buffer (Count)
board.cache_hierarchy.ruby_system.directory_controllers0.responseToDir.m_buf_msgs     0.014420                       # Average number of messages in buffer ((Count/Tick))
board.cache_hierarchy.ruby_system.directory_controllers1.power_state.pwrStateResidencyTicks::UNDEFINED  25950722000                       # Cumulative time (in ticks) in various power states (Tick)
board.cache_hierarchy.ruby_system.directory_controllers1.requestToDir.m_msg_count       748980                       # Number of messages passed the buffer (Count)
board.cache_hierarchy.ruby_system.directory_controllers1.requestToDir.m_buf_msgs     0.014431                       # Average number of messages in buffer ((Count/Tick))
board.cache_hierarchy.ruby_system.directory_controllers1.requestToMemory.m_msg_count       826364                       # Number of messages passed the buffer (Count)
board.cache_hierarchy.ruby_system.directory_controllers1.requestToMemory.m_buf_msgs     0.017550                       # Average number of messages in buffer ((Count/Tick))
board.cache_hierarchy.ruby_system.directory_controllers1.requestToMemory.m_stall_time     42255000                       # Total number of ticks messages were stalled in this buffer (Tick)
board.cache_hierarchy.ruby_system.directory_controllers1.requestToMemory.m_avg_stall_time    51.133641                       # Average stall ticks per message ((Tick/Count))
board.cache_hierarchy.ruby_system.directory_controllers1.responseFromDir.m_msg_count      1495912                       # Number of messages passed the buffer (Count)
board.cache_hierarchy.ruby_system.directory_controllers1.responseFromDir.m_buf_msgs     0.028822                       # Average number of messages in buffer ((Count/Tick))
board.cache_hierarchy.ruby_system.directory_controllers1.responseFromMemory.m_msg_count       826364                       # Number of messages passed the buffer (Count)
board.cache_hierarchy.ruby_system.directory_controllers1.responseFromMemory.m_buf_msgs     0.020042                       # Average number of messages in buffer ((Count/Tick))
board.cache_hierarchy.ruby_system.directory_controllers1.responseToDir.m_msg_count       746932                       # Number of messages passed the buffer (Count)
board.cache_hierarchy.ruby_system.directory_controllers1.responseToDir.m_buf_msgs     0.014391                       # Average number of messages in buffer ((Count/Tick))
board.cache_hierarchy.ruby_system.l1_controllers.fullyBusyCycles      1209458                       # cycles for which number of transistions == max transitions (Unspecified)
board.cache_hierarchy.ruby_system.l1_controllers.delayHistogram::samples      6337873                       # delay_histogram (Unspecified)
board.cache_hierarchy.ruby_system.l1_controllers.delayHistogram::mean    19.350122                       # delay_histogram (Unspecified)
board.cache_hierarchy.ruby_system.l1_controllers.delayHistogram::stdev    24.577078                       # delay_histogram (Unspecified)
board.cache_hierarchy.ruby_system.l1_controllers.delayHistogram::0-15      3723862     58.76%     58.76% # delay_histogram (Unspecified)
board.cache_hierarchy.ruby_system.l1_controllers.delayHistogram::16-31       930868     14.69%     73.44% # delay_histogram (Unspecified)
board.cache_hierarchy.ruby_system.l1_controllers.delayHistogram::32-47       716937     11.31%     84.76% # delay_histogram (Unspecified)
board.cache_hierarchy.ruby_system.l1_controllers.delayHistogram::48-63       452686      7.14%     91.90% # delay_histogram (Unspecified)
board.cache_hierarchy.ruby_system.l1_controllers.delayHistogram::64-79       307688      4.85%     96.75% # delay_histogram (Unspecified)
board.cache_hierarchy.ruby_system.l1_controllers.delayHistogram::80-95       159544      2.52%     99.27% # delay_histogram (Unspecified)
board.cache_hierarchy.ruby_system.l1_controllers.delayHistogram::96-111        40607      0.64%     99.91% # delay_histogram (Unspecified)
board.cache_hierarchy.ruby_system.l1_controllers.delayHistogram::112-127         5324      0.08%     99.99% # delay_histogram (Unspecified)
board.cache_hierarchy.ruby_system.l1_controllers.delayHistogram::128-143          351      0.01%    100.00% # delay_histogram (Unspecified)
board.cache_hierarchy.ruby_system.l1_controllers.delayHistogram::144-159            6      0.00%    100.00% # delay_histogram (Unspecified)
board.cache_hierarchy.ruby_system.l1_controllers.delayHistogram::total      6337873                       # delay_histogram (Unspecified)
board.cache_hierarchy.ruby_system.l1_controllers.L1Dcache.m_demand_hits      4245362                       # Number of cache demand hits (Unspecified)
board.cache_hierarchy.ruby_system.l1_controllers.L1Dcache.m_demand_misses      3167385                       # Number of cache demand misses (Unspecified)
board.cache_hierarchy.ruby_system.l1_controllers.L1Dcache.m_demand_accesses      7412747                       # Number of cache demand accesses (Unspecified)
board.cache_hierarchy.ruby_system.l1_controllers.L1Icache.m_demand_hits       828694                       # Number of cache demand hits (Unspecified)
board.cache_hierarchy.ruby_system.l1_controllers.L1Icache.m_demand_misses         2433                       # Number of cache demand misses (Unspecified)
board.cache_hierarchy.ruby_system.l1_controllers.L1Icache.m_demand_accesses       831127                       # Number of cache demand accesses (Unspecified)
board.cache_hierarchy.ruby_system.l1_controllers.mandatoryQueue.m_msg_count      8243874                       # Number of messages passed the buffer (Count)
board.cache_hierarchy.ruby_system.l1_controllers.mandatoryQueue.m_buf_msgs     0.198561                       # Average number of messages in buffer ((Count/Tick))
board.cache_hierarchy.ruby_system.l1_controllers.mandatoryQueue.m_stall_time   1030869000                       # Total number of ticks messages were stalled in this buffer (Tick)
board.cache_hierarchy.ruby_system.l1_controllers.mandatoryQueue.m_stall_count         2056                       # Number of times messages were stalled (Count)
board.cache_hierarchy.ruby_system.l1_controllers.mandatoryQueue.m_avg_stall_time   125.046671                       # Average stall ticks per message ((Tick/Count))
board.cache_hierarchy.ruby_system.l1_controllers.power_state.pwrStateResidencyTicks::UNDEFINED  25950722000                       # Cumulative time (in ticks) in various power states (Tick)
board.cache_hierarchy.ruby_system.l1_controllers.prefetcher.RubyPrefetcher.numMissObserved            0                       # Number of misses observed (Unspecified)
board.cache_hierarchy.ruby_system.l1_controllers.prefetcher.RubyPrefetcher.numAllocatedStreams            0                       # Number of streams allocated for prefetching (Unspecified)
board.cache_hierarchy.ruby_system.l1_controllers.prefetcher.RubyPrefetcher.numPrefetchRequested            0                       # Number of prefetch requests made (Unspecified)
board.cache_hierarchy.ruby_system.l1_controllers.prefetcher.RubyPrefetcher.numHits            0                       # Number of prefetched blocks accessed (for the first time) (Unspecified)
board.cache_hierarchy.ruby_system.l1_controllers.prefetcher.RubyPrefetcher.numPartialHits            0                       # Number of misses observed for a block being prefetched (Unspecified)
board.cache_hierarchy.ruby_system.l1_controllers.prefetcher.RubyPrefetcher.numPagesCrossed            0                       # Number of prefetches across pages (Unspecified)
board.cache_hierarchy.ruby_system.l1_controllers.prefetcher.RubyPrefetcher.numMissedPrefetchedBlocks            0                       # Number of misses for blocks that were prefetched, yet missed (Unspecified)
board.cache_hierarchy.ruby_system.l1_controllers.requestFromL1Cache.m_msg_count      6334618                       # Number of messages passed the buffer (Count)
board.cache_hierarchy.ruby_system.l1_controllers.requestFromL1Cache.m_buf_msgs     0.244102                       # Average number of messages in buffer ((Count/Tick))
board.cache_hierarchy.ruby_system.l1_controllers.requestToL1Cache.m_msg_count         4463                       # Number of messages passed the buffer (Count)
board.cache_hierarchy.ruby_system.l1_controllers.requestToL1Cache.m_buf_msgs     0.000086                       # Average number of messages in buffer ((Count/Tick))
board.cache_hierarchy.ruby_system.l1_controllers.responseFromL1Cache.m_msg_count         4463                       # Number of messages passed the buffer (Count)
board.cache_hierarchy.ruby_system.l1_controllers.responseFromL1Cache.m_buf_msgs     0.000172                       # Average number of messages in buffer ((Count/Tick))
board.cache_hierarchy.ruby_system.l1_controllers.responseToL1Cache.m_msg_count      6334617                       # Number of messages passed the buffer (Count)
board.cache_hierarchy.ruby_system.l1_controllers.responseToL1Cache.m_buf_msgs     0.122051                       # Average number of messages in buffer ((Count/Tick))
board.cache_hierarchy.ruby_system.l1_controllers.sequencer.power_state.pwrStateResidencyTicks::UNDEFINED  25950722000                       # Cumulative time (in ticks) in various power states (Tick)
board.cache_hierarchy.ruby_system.l1_controllers.unblockFromL1Cache.m_msg_count      3167383                       # Number of messages passed the buffer (Count)
board.cache_hierarchy.ruby_system.l1_controllers.unblockFromL1Cache.m_buf_msgs     0.061027                       # Average number of messages in buffer ((Count/Tick))
board.cache_hierarchy.ruby_system.l2_controllers0.fullyBusyCycles           13                       # cycles for which number of transistions == max transitions (Unspecified)
board.cache_hierarchy.ruby_system.l2_controllers0.delayHistogram::samples      3130838                       # delay_histogram (Unspecified)
board.cache_hierarchy.ruby_system.l2_controllers0.delayHistogram::mean     0.368896                       # delay_histogram (Unspecified)
board.cache_hierarchy.ruby_system.l2_controllers0.delayHistogram::stdev     1.632438                       # delay_histogram (Unspecified)
board.cache_hierarchy.ruby_system.l2_controllers0.delayHistogram::0-15      3126393     99.86%     99.86% # delay_histogram (Unspecified)
board.cache_hierarchy.ruby_system.l2_controllers0.delayHistogram::16-31         4356      0.14%    100.00% # delay_histogram (Unspecified)
board.cache_hierarchy.ruby_system.l2_controllers0.delayHistogram::32-47           88      0.00%    100.00% # delay_histogram (Unspecified)
board.cache_hierarchy.ruby_system.l2_controllers0.delayHistogram::48-63            1      0.00%    100.00% # delay_histogram (Unspecified)
board.cache_hierarchy.ruby_system.l2_controllers0.delayHistogram::total      3130838                       # delay_histogram (Unspecified)
board.cache_hierarchy.ruby_system.l2_controllers0.DirRequestFromL2Cache.m_msg_count       375576                       # Number of messages passed the buffer (Count)
board.cache_hierarchy.ruby_system.l2_controllers0.DirRequestFromL2Cache.m_buf_msgs     0.014473                       # Average number of messages in buffer ((Count/Tick))
board.cache_hierarchy.ruby_system.l2_controllers0.L1RequestFromL2Cache.m_msg_count         1416                       # Number of messages passed the buffer (Count)
board.cache_hierarchy.ruby_system.l2_controllers0.L1RequestFromL2Cache.m_buf_msgs     0.000027                       # Average number of messages in buffer ((Count/Tick))
board.cache_hierarchy.ruby_system.l2_controllers0.L1RequestToL2Cache.m_msg_count      1586649                       # Number of messages passed the buffer (Count)
board.cache_hierarchy.ruby_system.l2_controllers0.L1RequestToL2Cache.m_buf_msgs     0.030597                       # Average number of messages in buffer ((Count/Tick))
board.cache_hierarchy.ruby_system.l2_controllers0.L1RequestToL2Cache.m_stall_time       694500                       # Total number of ticks messages were stalled in this buffer (Tick)
board.cache_hierarchy.ruby_system.l2_controllers0.L1RequestToL2Cache.m_stall_count          125                       # Number of times messages were stalled (Count)
board.cache_hierarchy.ruby_system.l2_controllers0.L1RequestToL2Cache.m_avg_stall_time     0.437715                       # Average stall ticks per message ((Tick/Count))
board.cache_hierarchy.ruby_system.l2_controllers0.L2cache.m_demand_hits       418524                       # Number of cache demand hits (Unspecified)
board.cache_hierarchy.ruby_system.l2_controllers0.L2cache.m_demand_misses       375576                       # Number of cache demand misses (Unspecified)
board.cache_hierarchy.ruby_system.l2_controllers0.L2cache.m_demand_accesses       794100                       # Number of cache demand accesses (Unspecified)
board.cache_hierarchy.ruby_system.l2_controllers0.power_state.pwrStateResidencyTicks::UNDEFINED  25950722000                       # Cumulative time (in ticks) in various power states (Tick)
board.cache_hierarchy.ruby_system.l2_controllers0.responseFromL2Cache.m_msg_count      1961201                       # Number of messages passed the buffer (Count)
board.cache_hierarchy.ruby_system.l2_controllers0.responseFromL2Cache.m_buf_msgs     0.053067                       # Average number of messages in buffer ((Count/Tick))
board.cache_hierarchy.ruby_system.l2_controllers0.responseToL2Cache.m_msg_count       751544                       # Number of messages passed the buffer (Count)
board.cache_hierarchy.ruby_system.l2_controllers0.responseToL2Cache.m_buf_msgs     0.014480                       # Average number of messages in buffer ((Count/Tick))
board.cache_hierarchy.ruby_system.l2_controllers0.unblockToL2Cache.m_msg_count       793314                       # Number of messages passed the buffer (Count)
board.cache_hierarchy.ruby_system.l2_controllers0.unblockToL2Cache.m_buf_msgs     0.015285                       # Average number of messages in buffer ((Count/Tick))
board.cache_hierarchy.ruby_system.l2_controllers1.fullyBusyCycles            5                       # cycles for which number of transistions == max transitions (Unspecified)
board.cache_hierarchy.ruby_system.l2_controllers1.delayHistogram::samples      3121893                       # delay_histogram (Unspecified)
board.cache_hierarchy.ruby_system.l2_controllers1.delayHistogram::mean     0.361787                       # delay_histogram (Unspecified)
board.cache_hierarchy.ruby_system.l2_controllers1.delayHistogram::stdev     1.605528                       # delay_histogram (Unspecified)
board.cache_hierarchy.ruby_system.l2_controllers1.delayHistogram::0-15      3118005     99.88%     99.88% # delay_histogram (Unspecified)
board.cache_hierarchy.ruby_system.l2_controllers1.delayHistogram::16-31         3824      0.12%    100.00% # delay_histogram (Unspecified)
board.cache_hierarchy.ruby_system.l2_controllers1.delayHistogram::32-47           63      0.00%    100.00% # delay_histogram (Unspecified)
board.cache_hierarchy.ruby_system.l2_controllers1.delayHistogram::48-63            1      0.00%    100.00% # delay_histogram (Unspecified)
board.cache_hierarchy.ruby_system.l2_controllers1.delayHistogram::total      3121893                       # delay_histogram (Unspecified)
board.cache_hierarchy.ruby_system.l2_controllers1.DirRequestFromL2Cache.m_msg_count       374901                       # Number of messages passed the buffer (Count)
board.cache_hierarchy.ruby_system.l2_controllers1.DirRequestFromL2Cache.m_buf_msgs     0.014447                       # Average number of messages in buffer ((Count/Tick))
board.cache_hierarchy.ruby_system.l2_controllers1.L1RequestFromL2Cache.m_msg_count         1098                       # Number of messages passed the buffer (Count)
board.cache_hierarchy.ruby_system.l2_controllers1.L1RequestFromL2Cache.m_buf_msgs     0.000021                       # Average number of messages in buffer ((Count/Tick))
board.cache_hierarchy.ruby_system.l2_controllers1.L1RequestToL2Cache.m_msg_count      1581938                       # Number of messages passed the buffer (Count)
board.cache_hierarchy.ruby_system.l2_controllers1.L1RequestToL2Cache.m_buf_msgs     0.030495                       # Average number of messages in buffer ((Count/Tick))
board.cache_hierarchy.ruby_system.l2_controllers1.L1RequestToL2Cache.m_stall_time       399500                       # Total number of ticks messages were stalled in this buffer (Tick)
board.cache_hierarchy.ruby_system.l2_controllers1.L1RequestToL2Cache.m_stall_count          101                       # Number of times messages were stalled (Count)
board.cache_hierarchy.ruby_system.l2_controllers1.L1RequestToL2Cache.m_avg_stall_time     0.252538                       # Average stall ticks per message ((Tick/Count))
board.cache_hierarchy.ruby_system.l2_controllers1.L2cache.m_demand_hits       416686                       # Number of cache demand hits (Unspecified)
board.cache_hierarchy.ruby_system.l2_controllers1.L2cache.m_demand_misses       374901                       # Number of cache demand misses (Unspecified)
board.cache_hierarchy.ruby_system.l2_controllers1.L2cache.m_demand_accesses       791587                       # Number of cache demand accesses (Unspecified)
board.cache_hierarchy.ruby_system.l2_controllers1.power_state.pwrStateResidencyTicks::UNDEFINED  25950722000                       # Cumulative time (in ticks) in various power states (Tick)
board.cache_hierarchy.ruby_system.l2_controllers1.responseFromL2Cache.m_msg_count      1955815                       # Number of messages passed the buffer (Count)
board.cache_hierarchy.ruby_system.l2_controllers1.responseFromL2Cache.m_buf_msgs     0.052915                       # Average number of messages in buffer ((Count/Tick))
board.cache_hierarchy.ruby_system.l2_controllers1.responseToL2Cache.m_msg_count       749876                       # Number of messages passed the buffer (Count)
board.cache_hierarchy.ruby_system.l2_controllers1.responseToL2Cache.m_buf_msgs     0.014448                       # Average number of messages in buffer ((Count/Tick))
board.cache_hierarchy.ruby_system.l2_controllers1.unblockToL2Cache.m_msg_count       790804                       # Number of messages passed the buffer (Count)
board.cache_hierarchy.ruby_system.l2_controllers1.unblockToL2Cache.m_buf_msgs     0.015237                       # Average number of messages in buffer ((Count/Tick))
board.cache_hierarchy.ruby_system.l2_controllers2.fullyBusyCycles            5                       # cycles for which number of transistions == max transitions (Unspecified)
board.cache_hierarchy.ruby_system.l2_controllers2.delayHistogram::samples      3124160                       # delay_histogram (Unspecified)
board.cache_hierarchy.ruby_system.l2_controllers2.delayHistogram::mean     0.362307                       # delay_histogram (Unspecified)
board.cache_hierarchy.ruby_system.l2_controllers2.delayHistogram::stdev     1.608318                       # delay_histogram (Unspecified)
board.cache_hierarchy.ruby_system.l2_controllers2.delayHistogram::0-15      3120023     99.87%     99.87% # delay_histogram (Unspecified)
board.cache_hierarchy.ruby_system.l2_controllers2.delayHistogram::16-31         4086      0.13%    100.00% # delay_histogram (Unspecified)
board.cache_hierarchy.ruby_system.l2_controllers2.delayHistogram::32-47           51      0.00%    100.00% # delay_histogram (Unspecified)
board.cache_hierarchy.ruby_system.l2_controllers2.delayHistogram::total      3124160                       # delay_histogram (Unspecified)
board.cache_hierarchy.ruby_system.l2_controllers2.DirRequestFromL2Cache.m_msg_count       374779                       # Number of messages passed the buffer (Count)
board.cache_hierarchy.ruby_system.l2_controllers2.DirRequestFromL2Cache.m_buf_msgs     0.014442                       # Average number of messages in buffer ((Count/Tick))
board.cache_hierarchy.ruby_system.l2_controllers2.L1RequestFromL2Cache.m_msg_count         1072                       # Number of messages passed the buffer (Count)
board.cache_hierarchy.ruby_system.l2_controllers2.L1RequestFromL2Cache.m_buf_msgs     0.000021                       # Average number of messages in buffer ((Count/Tick))
board.cache_hierarchy.ruby_system.l2_controllers2.L1RequestToL2Cache.m_msg_count      1583451                       # Number of messages passed the buffer (Count)
board.cache_hierarchy.ruby_system.l2_controllers2.L1RequestToL2Cache.m_buf_msgs     0.030518                       # Average number of messages in buffer ((Count/Tick))
board.cache_hierarchy.ruby_system.l2_controllers2.L1RequestToL2Cache.m_stall_time       248500                       # Total number of ticks messages were stalled in this buffer (Tick)
board.cache_hierarchy.ruby_system.l2_controllers2.L1RequestToL2Cache.m_stall_count           57                       # Number of times messages were stalled (Count)
board.cache_hierarchy.ruby_system.l2_controllers2.L1RequestToL2Cache.m_avg_stall_time     0.156936                       # Average stall ticks per message ((Tick/Count))
board.cache_hierarchy.ruby_system.l2_controllers2.L2cache.m_demand_hits       417550                       # Number of cache demand hits (Unspecified)
board.cache_hierarchy.ruby_system.l2_controllers2.L2cache.m_demand_misses       374779                       # Number of cache demand misses (Unspecified)
board.cache_hierarchy.ruby_system.l2_controllers2.L2cache.m_demand_accesses       792329                       # Number of cache demand accesses (Unspecified)
board.cache_hierarchy.ruby_system.l2_controllers2.power_state.pwrStateResidencyTicks::UNDEFINED  25950722000                       # Cumulative time (in ticks) in various power states (Tick)
board.cache_hierarchy.ruby_system.l2_controllers2.responseFromL2Cache.m_msg_count      1957206                       # Number of messages passed the buffer (Count)
board.cache_hierarchy.ruby_system.l2_controllers2.responseFromL2Cache.m_buf_msgs     0.052956                       # Average number of messages in buffer ((Count/Tick))
board.cache_hierarchy.ruby_system.l2_controllers2.responseToL2Cache.m_msg_count       749606                       # Number of messages passed the buffer (Count)
board.cache_hierarchy.ruby_system.l2_controllers2.responseToL2Cache.m_buf_msgs     0.014443                       # Average number of messages in buffer ((Count/Tick))
board.cache_hierarchy.ruby_system.l2_controllers2.unblockToL2Cache.m_msg_count       791829                       # Number of messages passed the buffer (Count)
board.cache_hierarchy.ruby_system.l2_controllers2.unblockToL2Cache.m_buf_msgs     0.015256                       # Average number of messages in buffer ((Count/Tick))
board.cache_hierarchy.ruby_system.l2_controllers3.fullyBusyCycles            5                       # cycles for which number of transistions == max transitions (Unspecified)
board.cache_hierarchy.ruby_system.l2_controllers3.delayHistogram::samples      3121563                       # delay_histogram (Unspecified)
board.cache_hierarchy.ruby_system.l2_controllers3.delayHistogram::mean     0.360698                       # delay_histogram (Unspecified)
board.cache_hierarchy.ruby_system.l2_controllers3.delayHistogram::stdev     1.609413                       # delay_histogram (Unspecified)
board.cache_hierarchy.ruby_system.l2_controllers3.delayHistogram::0-15      3117419     99.87%     99.87% # delay_histogram (Unspecified)
board.cache_hierarchy.ruby_system.l2_controllers3.delayHistogram::16-31         4072      0.13%    100.00% # delay_histogram (Unspecified)
board.cache_hierarchy.ruby_system.l2_controllers3.delayHistogram::32-47           66      0.00%    100.00% # delay_histogram (Unspecified)
board.cache_hierarchy.ruby_system.l2_controllers3.delayHistogram::48-63            6      0.00%    100.00% # delay_histogram (Unspecified)
board.cache_hierarchy.ruby_system.l2_controllers3.delayHistogram::total      3121563                       # delay_histogram (Unspecified)
board.cache_hierarchy.ruby_system.l2_controllers3.DirRequestFromL2Cache.m_msg_count       374201                       # Number of messages passed the buffer (Count)
board.cache_hierarchy.ruby_system.l2_controllers3.DirRequestFromL2Cache.m_buf_msgs     0.014420                       # Average number of messages in buffer ((Count/Tick))
board.cache_hierarchy.ruby_system.l2_controllers3.L1RequestFromL2Cache.m_msg_count          877                       # Number of messages passed the buffer (Count)
board.cache_hierarchy.ruby_system.l2_controllers3.L1RequestFromL2Cache.m_buf_msgs     0.000017                       # Average number of messages in buffer ((Count/Tick))
board.cache_hierarchy.ruby_system.l2_controllers3.L1RequestToL2Cache.m_msg_count      1582579                       # Number of messages passed the buffer (Count)
board.cache_hierarchy.ruby_system.l2_controllers3.L1RequestToL2Cache.m_buf_msgs     0.030501                       # Average number of messages in buffer ((Count/Tick))
board.cache_hierarchy.ruby_system.l2_controllers3.L1RequestToL2Cache.m_stall_time       225500                       # Total number of ticks messages were stalled in this buffer (Tick)
board.cache_hierarchy.ruby_system.l2_controllers3.L1RequestToL2Cache.m_stall_count           47                       # Number of times messages were stalled (Count)
board.cache_hierarchy.ruby_system.l2_controllers3.L1RequestToL2Cache.m_avg_stall_time     0.142489                       # Average stall ticks per message ((Tick/Count))
board.cache_hierarchy.ruby_system.l2_controllers3.L2cache.m_demand_hits       417600                       # Number of cache demand hits (Unspecified)
board.cache_hierarchy.ruby_system.l2_controllers3.L2cache.m_demand_misses       374201                       # Number of cache demand misses (Unspecified)
board.cache_hierarchy.ruby_system.l2_controllers3.L2cache.m_demand_accesses       791801                       # Number of cache demand accesses (Unspecified)
board.cache_hierarchy.ruby_system.l2_controllers3.power_state.pwrStateResidencyTicks::UNDEFINED  25950722000                       # Cumulative time (in ticks) in various power states (Tick)
board.cache_hierarchy.ruby_system.l2_controllers3.responseFromL2Cache.m_msg_count      1955756                       # Number of messages passed the buffer (Count)
board.cache_hierarchy.ruby_system.l2_controllers3.responseFromL2Cache.m_buf_msgs     0.052918                       # Average number of messages in buffer ((Count/Tick))
board.cache_hierarchy.ruby_system.l2_controllers3.responseToL2Cache.m_msg_count       748255                       # Number of messages passed the buffer (Count)
board.cache_hierarchy.ruby_system.l2_controllers3.responseToL2Cache.m_buf_msgs     0.014417                       # Average number of messages in buffer ((Count/Tick))
board.cache_hierarchy.ruby_system.l2_controllers3.unblockToL2Cache.m_msg_count       791436                       # Number of messages passed the buffer (Count)
board.cache_hierarchy.ruby_system.l2_controllers3.unblockToL2Cache.m_buf_msgs     0.015249                       # Average number of messages in buffer ((Count/Tick))
board.cache_hierarchy.ruby_system.network.msg_count.Control      9338549                       (Unspecified)
board.cache_hierarchy.ruby_system.network.msg_byte.Control     74708392                       (Unspecified)
board.cache_hierarchy.ruby_system.network.msg_count.Request_Control         8926                       (Unspecified)
board.cache_hierarchy.ruby_system.network.msg_byte.Request_Control        71408                       (Unspecified)
board.cache_hierarchy.ruby_system.network.msg_count.Response_Data      9648696                       (Unspecified)
board.cache_hierarchy.ruby_system.network.msg_byte.Response_Data    694706112                       (Unspecified)
board.cache_hierarchy.ruby_system.network.msg_count.Response_Control     18344144                       (Unspecified)
board.cache_hierarchy.ruby_system.network.msg_byte.Response_Control    146753152                       (Unspecified)
board.cache_hierarchy.ruby_system.network.msg_count.Writeback_Data       328716                       (Unspecified)
board.cache_hierarchy.ruby_system.network.msg_byte.Writeback_Data     23667552                       (Unspecified)
board.cache_hierarchy.ruby_system.network.msg_count.Writeback_Control      6001328                       (Unspecified)
board.cache_hierarchy.ruby_system.network.msg_byte.Writeback_Control     48010624                       (Unspecified)
board.cache_hierarchy.ruby_system.network.int_links0.buffers0.m_msg_count      1586366                       # Number of messages passed the buffer (Count)
board.cache_hierarchy.ruby_system.network.int_links0.buffers0.m_buf_msgs     0.030616                       # Average number of messages in buffer ((Count/Tick))
board.cache_hierarchy.ruby_system.network.int_links0.buffers1.m_msg_count         1416                       # Number of messages passed the buffer (Count)
board.cache_hierarchy.ruby_system.network.int_links0.buffers1.m_buf_msgs     0.000027                       # Average number of messages in buffer ((Count/Tick))
board.cache_hierarchy.ruby_system.network.int_links0.buffers2.m_msg_count       793202                       # Number of messages passed the buffer (Count)
board.cache_hierarchy.ruby_system.network.int_links0.buffers2.m_buf_msgs     0.015308                       # Average number of messages in buffer ((Count/Tick))
board.cache_hierarchy.ruby_system.network.int_links1.buffers0.m_msg_count      1581627                       # Number of messages passed the buffer (Count)
board.cache_hierarchy.ruby_system.network.int_links1.buffers0.m_buf_msgs     0.030524                       # Average number of messages in buffer ((Count/Tick))
board.cache_hierarchy.ruby_system.network.int_links1.buffers1.m_msg_count         1098                       # Number of messages passed the buffer (Count)
board.cache_hierarchy.ruby_system.network.int_links1.buffers1.m_buf_msgs     0.000021                       # Average number of messages in buffer ((Count/Tick))
board.cache_hierarchy.ruby_system.network.int_links1.buffers2.m_msg_count       790682                       # Number of messages passed the buffer (Count)
board.cache_hierarchy.ruby_system.network.int_links1.buffers2.m_buf_msgs     0.015260                       # Average number of messages in buffer ((Count/Tick))
board.cache_hierarchy.ruby_system.network.int_links10.buffers0.m_msg_count       375301                       # Number of messages passed the buffer (Count)
board.cache_hierarchy.ruby_system.network.int_links10.buffers0.m_buf_msgs     0.007243                       # Average number of messages in buffer ((Count/Tick))
board.cache_hierarchy.ruby_system.network.int_links10.buffers1.m_msg_count       374552                       # Number of messages passed the buffer (Count)
board.cache_hierarchy.ruby_system.network.int_links10.buffers1.m_buf_msgs     0.007229                       # Average number of messages in buffer ((Count/Tick))
board.cache_hierarchy.ruby_system.network.int_links12.buffers1.m_msg_count      1581628                       # Number of messages passed the buffer (Count)
board.cache_hierarchy.ruby_system.network.int_links12.buffers1.m_buf_msgs     0.030524                       # Average number of messages in buffer ((Count/Tick))
board.cache_hierarchy.ruby_system.network.int_links12.buffers2.m_msg_count         1098                       # Number of messages passed the buffer (Count)
board.cache_hierarchy.ruby_system.network.int_links12.buffers2.m_buf_msgs     0.000021                       # Average number of messages in buffer ((Count/Tick))
board.cache_hierarchy.ruby_system.network.int_links16.buffers0.m_msg_count       374608                       # Number of messages passed the buffer (Count)
board.cache_hierarchy.ruby_system.network.int_links16.buffers0.m_buf_msgs     0.007230                       # Average number of messages in buffer ((Count/Tick))
board.cache_hierarchy.ruby_system.network.int_links16.buffers1.m_msg_count       373877                       # Number of messages passed the buffer (Count)
[...]
board.processor.cores.core.fetch.nisnDist::2       982570      1.94%     82.29% # Number of instructions fetched each cycle (Total) (Count)
board.processor.cores.core.fetch.nisnDist::3       681388      1.35%     83.64% # Number of instructions fetched each cycle (Total) (Count)
board.processor.cores.core.fetch.nisnDist::4       573512      1.13%     84.78% # Number of instructions fetched each cycle (Total) (Count)
board.processor.cores.core.fetch.nisnDist::5       899564      1.78%     86.56% # Number of instructions fetched each cycle (Total) (Count)
board.processor.cores.core.fetch.nisnDist::6       421990      0.84%     87.39% # Number of instructions fetched each cycle (Total) (Count)
board.processor.cores.core.fetch.nisnDist::7      5447861     10.78%     98.17% # Number of instructions fetched each cycle (Total) (Count)
board.processor.cores.core.fetch.nisnDist::8       126371      0.25%     98.42% # Number of instructions fetched each cycle (Total) (Count)
board.processor.cores.core.fetch.nisnDist::9        90802      0.18%     98.60% # Number of instructions fetched each cycle (Total) (Count)
board.processor.cores.core.fetch.nisnDist::10        49955      0.10%     98.70% # Number of instructions fetched each cycle (Total) (Count)
board.processor.cores.core.fetch.nisnDist::11        49798      0.10%     98.80% # Number of instructions fetched each cycle (Total) (Count)
board.processor.cores.core.fetch.nisnDist::12       605604      1.20%    100.00% # Number of instructions fetched each cycle (Total) (Count)
board.processor.cores.core.fetch.nisnDist::overflows            0      0.00%    100.00% # Number of instructions fetched each cycle (Total) (Count)
board.processor.cores.core.fetch.nisnDist::min_value            0                       # Number of instructions fetched each cycle (Total) (Count)
board.processor.cores.core.fetch.nisnDist::max_value           12                       # Number of instructions fetched each cycle (Total) (Count)
board.processor.cores.core.fetch.nisnDist::total     50530063                       # Number of instructions fetched each cycle (Total) (Count)
board.processor.cores.core.fetchStats0.numInsts     62213240                       # Number of instructions fetched (thread level) (Count)
board.processor.cores.core.fetchStats0.numOps            0                       # Number of ops (including micro ops) fetched (thread level) (Count)
board.processor.cores.core.fetchStats0.fetchRate     1.200269                       # Number of inst fetches per cycle ((Count/Cycle))
board.processor.cores.core.fetchStats0.numBranches     16253209                       # Number of branches fetched (Count)
board.processor.cores.core.fetchStats0.branchRate     0.313570                       # Number of branch fetches per cycle (Ratio)
board.processor.cores.core.fetchStats0.icacheStallCycles      1001007                       # ICache total stall cycles (Cycle)
board.processor.cores.core.fetchStats0.numFetchSuspends            0                       # Number of times Execute suspended instruction fetching (Count)
board.processor.cores.core.iew.idleCycles            0                       # Number of cycles IEW is idle (Cycle)
board.processor.cores.core.iew.squashCycles       303712                       # Number of cycles IEW is squashing (Cycle)
board.processor.cores.core.iew.blockCycles     28948334                       # Number of cycles IEW is blocking (Cycle)
board.processor.cores.core.iew.unblockCycles      4005882                       # Number of cycles IEW is unblocking (Cycle)
board.processor.cores.core.iew.dispatchedInsts     47255903                       # Number of instructions dispatched to IQ (Count)
board.processor.cores.core.iew.dispSquashedInsts        44599                       # Number of squashed instructions skipped by dispatch (Count)
board.processor.cores.core.iew.dispLoadInsts     12620476                       # Number of dispatched load instructions (Count)
board.processor.cores.core.iew.dispStoreInsts      1235960                       # Number of dispatched store instructions (Count)
board.processor.cores.core.iew.dispNonSpecInsts          138                       # Number of dispatched non-speculative instructions (Count)
board.processor.cores.core.iew.iqFullEvents       462295                       # Number of times the IQ has become full, causing a stall (Count)
board.processor.cores.core.iew.lsqFullEvents            0                       # Number of times the LSQ has become full, causing a stall (Count)
board.processor.cores.core.iew.memOrderViolationEvents           48                       # Number of memory order violations (Count)
board.processor.cores.core.iew.predictedTakenIncorrect       170880                       # Number of branches that were predicted taken incorrectly (Count)
board.processor.cores.core.iew.predictedNotTakenIncorrect       163629                       # Number of branches that were predicted not taken incorrectly (Count)
board.processor.cores.core.iew.branchMispredicts       334509                       # Number of branch mispredicts detected at execute (Count)
board.processor.cores.core.iew.instsToCommit     39641505                       # Cumulative count of insts sent to commit (Count)
board.processor.cores.core.iew.writebackCount     39531695                       # Cumulative count of insts written-back (Count)
board.processor.cores.core.iew.producerInst     27010564                       # Number of instructions producing a value (Count)
board.processor.cores.core.iew.consumerInst     36221080                       # Number of instructions consuming a value (Count)
board.processor.cores.core.iew.wbRate        0.762678                       # Insts written-back per cycle ((Count/Cycle))
board.processor.cores.core.iew.wbFanout      0.745714                       # Average fanout of values written-back ((Count/Count))
board.processor.cores.core.lsq0.forwLoads          337                       # Number of loads that had data forwarded from stores (Count)
board.processor.cores.core.lsq0.squashedLoads      4048203                       # Number of loads squashed (Count)
board.processor.cores.core.lsq0.ignoredResponses            9                       # Number of memory responses ignored because the instruction is squashed (Count)
board.processor.cores.core.lsq0.memOrderViolation           48                       # Number of memory ordering violations (Count)
board.processor.cores.core.lsq0.squashedStores       648488                       # Number of stores squashed (Count)
board.processor.cores.core.lsq0.rescheduledLoads            0                       # Number of loads that were rescheduled (Count)
board.processor.cores.core.lsq0.blockedByCache      1387871                       # Number of times an access to memory failed due to the cache being blocked (Count)
board.processor.cores.core.lsq0.loadToUse::samples      8572273                       # Distribution of cycle latency between the first time a load is issued and its completion (Unspecified)
board.processor.cores.core.lsq0.loadToUse::mean    63.761005                       # Distribution of cycle latency between the first time a load is issued and its completion (Unspecified)
board.processor.cores.core.lsq0.loadToUse::stdev    81.533857                       # Distribution of cycle latency between the first time a load is issued and its completion (Unspecified)
board.processor.cores.core.lsq0.loadToUse::0-9      2866699     33.44%     33.44% # Distribution of cycle latency between the first time a load is issued and its completion (Unspecified)
board.processor.cores.core.lsq0.loadToUse::10-19       576080      6.72%     40.16% # Distribution of cycle latency between the first time a load is issued and its completion (Unspecified)
board.processor.cores.core.lsq0.loadToUse::20-29       581674      6.79%     46.95% # Distribution of cycle latency between the first time a load is issued and its completion (Unspecified)
board.processor.cores.core.lsq0.loadToUse::30-39       410393      4.79%     51.73% # Distribution of cycle latency between the first time a load is issued and its completion (Unspecified)
board.processor.cores.core.lsq0.loadToUse::40-49       310036      3.62%     55.35% # Distribution of cycle latency between the first time a load is issued and its completion (Unspecified)
board.processor.cores.core.lsq0.loadToUse::50-59       233778      2.73%     58.08% # Distribution of cycle latency between the first time a load is issued and its completion (Unspecified)
board.processor.cores.core.lsq0.loadToUse::60-69       165165      1.93%     60.01% # Distribution of cycle latency between the first time a load is issued and its completion (Unspecified)
board.processor.cores.core.lsq0.loadToUse::70-79       135706      1.58%     61.59% # Distribution of cycle latency between the first time a load is issued and its completion (Unspecified)
board.processor.cores.core.lsq0.loadToUse::80-89       228015      2.66%     64.25% # Distribution of cycle latency between the first time a load is issued and its completion (Unspecified)
board.processor.cores.core.lsq0.loadToUse::90-99       634858      7.41%     71.65% # Distribution of cycle latency between the first time a load is issued and its completion (Unspecified)
board.processor.cores.core.lsq0.loadToUse::100-109       730134      8.52%     80.17% # Distribution of cycle latency between the first time a load is issued and its completion (Unspecified)
board.processor.cores.core.lsq0.loadToUse::110-119       208456      2.43%     82.60% # Distribution of cycle latency between the first time a load is issued and its completion (Unspecified)
board.processor.cores.core.lsq0.loadToUse::120-129       167240      1.95%     84.55% # Distribution of cycle latency between the first time a load is issued and its completion (Unspecified)
board.processor.cores.core.lsq0.loadToUse::130-139       229022      2.67%     87.23% # Distribution of cycle latency between the first time a load is issued and its completion (Unspecified)
board.processor.cores.core.lsq0.loadToUse::140-149       142633      1.66%     88.89% # Distribution of cycle latency between the first time a load is issued and its completion (Unspecified)
board.processor.cores.core.lsq0.loadToUse::150-159       354890      4.14%     93.03% # Distribution of cycle latency between the first time a load is issued and its completion (Unspecified)
board.processor.cores.core.lsq0.loadToUse::160-169       232153      2.71%     95.74% # Distribution of cycle latency between the first time a load is issued and its completion (Unspecified)
board.processor.cores.core.lsq0.loadToUse::170-179        81074      0.95%     96.68% # Distribution of cycle latency between the first time a load is issued and its completion (Unspecified)
board.processor.cores.core.lsq0.loadToUse::180-189        38893      0.45%     97.14% # Distribution of cycle latency between the first time a load is issued and its completion (Unspecified)
board.processor.cores.core.lsq0.loadToUse::190-199        24345      0.28%     97.42% # Distribution of cycle latency between the first time a load is issued and its completion (Unspecified)
board.processor.cores.core.lsq0.loadToUse::200-209        21834      0.25%     97.68% # Distribution of cycle latency between the first time a load is issued and its completion (Unspecified)
board.processor.cores.core.lsq0.loadToUse::210-219        18230      0.21%     97.89% # Distribution of cycle latency between the first time a load is issued and its completion (Unspecified)
board.processor.cores.core.lsq0.loadToUse::220-229        14652      0.17%     98.06% # Distribution of cycle latency between the first time a load is issued and its completion (Unspecified)
board.processor.cores.core.lsq0.loadToUse::230-239        14852      0.17%     98.23% # Distribution of cycle latency between the first time a load is issued and its completion (Unspecified)
board.processor.cores.core.lsq0.loadToUse::240-249        17247      0.20%     98.43% # Distribution of cycle latency between the first time a load is issued and its completion (Unspecified)
board.processor.cores.core.lsq0.loadToUse::250-259         7965      0.09%     98.53% # Distribution of cycle latency between the first time a load is issued and its completion (Unspecified)
board.processor.cores.core.lsq0.loadToUse::260-269         5483      0.06%     98.59% # Distribution of cycle latency between the first time a load is issued and its completion (Unspecified)
board.processor.cores.core.lsq0.loadToUse::270-279         4816      0.06%     98.65% # Distribution of cycle latency between the first time a load is issued and its completion (Unspecified)
board.processor.cores.core.lsq0.loadToUse::280-289         4351      0.05%     98.70% # Distribution of cycle latency between the first time a load is issued and its completion (Unspecified)
board.processor.cores.core.lsq0.loadToUse::290-299         6950      0.08%     98.78% # Distribution of cycle latency between the first time a load is issued and its completion (Unspecified)
board.processor.cores.core.lsq0.loadToUse::overflows       104649      1.22%    100.00% # Distribution of cycle latency between the first time a load is issued and its completion (Unspecified)
board.processor.cores.core.lsq0.loadToUse::min_value            2                       # Distribution of cycle latency between the first time a load is issued and its completion (Unspecified)
board.processor.cores.core.lsq0.loadToUse::max_value         1497                       # Distribution of cycle latency between the first time a load is issued and its completion (Unspecified)
board.processor.cores.core.lsq0.loadToUse::total      8572273                       # Distribution of cycle latency between the first time a load is issued and its completion (Unspecified)
board.processor.cores.core.mmu.dtb.readHits            0                       # read hits (Count)
board.processor.cores.core.mmu.dtb.readMisses            0                       # read misses (Count)
board.processor.cores.core.mmu.dtb.readAccesses            0                       # read accesses (Count)
board.processor.cores.core.mmu.dtb.writeHits            0                       # write hits (Count)
board.processor.cores.core.mmu.dtb.writeMisses            0                       # write misses (Count)
board.processor.cores.core.mmu.dtb.writeAccesses            0                       # write accesses (Count)
board.processor.cores.core.mmu.dtb.hits             0                       # Total TLB (read and write) hits (Count)
board.processor.cores.core.mmu.dtb.misses            0                       # Total TLB (read and write) misses (Count)
board.processor.cores.core.mmu.dtb.accesses            0                       # Total TLB (read and write) accesses (Count)
board.processor.cores.core.mmu.dtb.walker.power_state.pwrStateResidencyTicks::UNDEFINED  25959310000                       # Cumulative time (in ticks) in various power states (Tick)
board.processor.cores.core.mmu.itb.readHits            0                       # read hits (Count)
board.processor.cores.core.mmu.itb.readMisses            0                       # read misses (Count)
board.processor.cores.core.mmu.itb.readAccesses            0                       # read accesses (Count)
board.processor.cores.core.mmu.itb.writeHits            0                       # write hits (Count)
board.processor.cores.core.mmu.itb.writeMisses            0                       # write misses (Count)
board.processor.cores.core.mmu.itb.writeAccesses            0                       # write accesses (Count)
board.processor.cores.core.mmu.itb.hits             0                       # Total TLB (read and write) hits (Count)
board.processor.cores.core.mmu.itb.misses            0                       # Total TLB (read and write) misses (Count)
board.processor.cores.core.mmu.itb.accesses            0                       # Total TLB (read and write) accesses (Count)
board.processor.cores.core.mmu.itb.walker.power_state.pwrStateResidencyTicks::UNDEFINED  25959310000                       # Cumulative time (in ticks) in various power states (Tick)
board.processor.cores.core.power_state.pwrStateResidencyTicks::ON  25959310000                       # Cumulative time (in ticks) in various power states (Tick)
board.processor.cores.core.rename.squashCycles       303712                       # Number of cycles rename is squashing (Cycle)
board.processor.cores.core.rename.idleCycles      2638140                       # Number of cycles rename is idle (Cycle)
board.processor.cores.core.rename.blockCycles     37857388                       # Number of cycles rename is blocking (Cycle)
board.processor.cores.core.rename.serializeStallCycles         2886                       # count of cycles rename stalled for serializing inst (Cycle)
board.processor.cores.core.rename.runCycles      2867841                       # Number of cycles rename is running (Cycle)
board.processor.cores.core.rename.unblockCycles      6860096                       # Number of cycles rename is unblocking (Cycle)
board.processor.cores.core.rename.renamedInsts     49595708                       # Number of instructions processed by rename (Count)
board.processor.cores.core.rename.ROBFullEvents        32139                       # Number of times rename has blocked due to ROB full (Count)
board.processor.cores.core.rename.IQFullEvents      5477316                       # Number of times rename has blocked due to IQ full (Count)
board.processor.cores.core.rename.fullRegistersEvents          198                       # Number of times there has been no free registers (Count)
board.processor.cores.core.rename.renamedOperands     35341150                       # Number of destination operands rename has renamed (Count)
board.processor.cores.core.rename.lookups     64702266                       # Number of register rename lookups that rename has made (Count)
board.processor.cores.core.rename.intLookups     64701281                       # Number of integer rename lookups (Count)
board.processor.cores.core.rename.committedMaps     22674903                       # Number of HB maps that are committed (Count)
board.processor.cores.core.rename.undoneMaps     12666248                       # Number of HB maps that are undone due to squashing (Count)
board.processor.cores.core.rename.serializing           61                       # count of serializing insts renamed (Count)
board.processor.cores.core.rename.tempSerializing           60                       # count of temporary serializing insts renamed (Count)
board.processor.cores.core.rename.skidInsts     26084513                       # count of insts added to the skid buffer (Count)
board.processor.cores.core.rob.reads         93996145                       # The number of ROB reads (Count)
board.processor.cores.core.rob.writes        97336160                       # The number of ROB writes (Count)
board.processor.cores.core.thread_0.numInsts     31704304                       # Number of Instructions committed (Count)
board.processor.cores.core.thread_0.numOps     31704350                       # Number of Ops committed (Count)
board.processor.cores.core.thread_0.numMemRefs            0                       # Number of Memory References (Count)
board.processor.cores.core.workload.numSyscalls           11                       # Number of system calls (Count)
board.workload.inst.arm                             0                       # number of arm instructions executed (Count)
board.workload.inst.quiesce                         0                       # number of quiesce instructions executed (Count)

---------- End Simulation Statistics   ----------
