
---------- Begin Simulation Statistics ----------
simSeconds                                   0.000915                       # Number of seconds simulated (Second)
simTicks                                    914939811                       # Number of ticks simulated (Tick)
finalTick                                  1179180639                       # Number of ticks from beginning of simulation (restored from checkpoints and never reset) (Tick)
simFreq                                  1000000000000                       # The number of ticks per simulated second ((Tick/Second))
hostSeconds                                     60.29                       # Real time elapsed on the host (Second)
hostTickRate                                 15176200                       # The number of ticks simulated per host second (ticks/s) ((Tick/Second))
hostMemory                                    1755520                       # Number of bytes of host memory used (Byte)
simInsts                                      1668291                       # Number of instructions simulated (Count)
simOps                                        2896072                       # Number of ops (including micro ops) simulated (Count)
hostInstRate                                    27672                       # Simulator instruction rate (inst/s) ((Count/Second))
hostOpRate                                      48037                       # Simulator op (including micro ops) rate (op/s) ((Count/Second))
board.cache_hierarchy.ruby_system.delayHistogram::bucket_size         1024                       # delay histogram for all message (Unspecified)
board.cache_hierarchy.ruby_system.delayHistogram::max_bucket        10239                       # delay histogram for all message (Unspecified)
board.cache_hierarchy.ruby_system.delayHistogram::samples       152563                       # delay histogram for all message (Unspecified)
board.cache_hierarchy.ruby_system.delayHistogram::mean  1712.802088                       # delay histogram for all message (Unspecified)
board.cache_hierarchy.ruby_system.delayHistogram::stdev  3374.377365                       # delay histogram for all message (Unspecified)
board.cache_hierarchy.ruby_system.delayHistogram |      120587     79.04%     79.04% |         361      0.24%     79.28% |         270      0.18%     79.45% |         472      0.31%     79.76% |         385      0.25%     80.02% |         593      0.39%     80.40% |        1276      0.84%     81.24% |        2720      1.78%     83.02% |       25899     16.98%    100.00% |           0      0.00%    100.00% # delay histogram for all message (Unspecified)
board.cache_hierarchy.ruby_system.delayHistogram::total       152563                       # delay histogram for all message (Unspecified)
board.cache_hierarchy.ruby_system.m_outstandReqHistSeqr::bucket_size            2                       (Unspecified)
board.cache_hierarchy.ruby_system.m_outstandReqHistSeqr::max_bucket           19                       (Unspecified)
board.cache_hierarchy.ruby_system.m_outstandReqHistSeqr::samples      1103797                       (Unspecified)
board.cache_hierarchy.ruby_system.m_outstandReqHistSeqr::mean     1.173349                       (Unspecified)
board.cache_hierarchy.ruby_system.m_outstandReqHistSeqr::gmean     1.121679                       (Unspecified)
board.cache_hierarchy.ruby_system.m_outstandReqHistSeqr::stdev     0.446141                       (Unspecified)
board.cache_hierarchy.ruby_system.m_outstandReqHistSeqr |      929298     84.19%     84.19% |      170935     15.49%     99.68% |        3110      0.28%     99.96% |         247      0.02%     99.98% |          78      0.01%     99.99% |          55      0.00%     99.99% |          51      0.00%    100.00% |          15      0.00%    100.00% |           8      0.00%    100.00% |           0      0.00%    100.00% (Unspecified)
board.cache_hierarchy.ruby_system.m_outstandReqHistSeqr::total      1103797                       (Unspecified)
board.cache_hierarchy.ruby_system.m_latencyHistSeqr::bucket_size          256                       (Unspecified)
board.cache_hierarchy.ruby_system.m_latencyHistSeqr::max_bucket         2559                       (Unspecified)
board.cache_hierarchy.ruby_system.m_latencyHistSeqr::samples      1104152                       (Unspecified)
board.cache_hierarchy.ruby_system.m_latencyHistSeqr::mean    36.120713                       (Unspecified)
board.cache_hierarchy.ruby_system.m_latencyHistSeqr::gmean     1.265576                       (Unspecified)
board.cache_hierarchy.ruby_system.m_latencyHistSeqr::stdev   200.552926                       (Unspecified)
board.cache_hierarchy.ruby_system.m_latencyHistSeqr |     1071824     97.07%     97.07% |         421      0.04%     97.11% |         674      0.06%     97.17% |        1245      0.11%     97.28% |       29983      2.72%    100.00% |           5      0.00%    100.00% |           0      0.00%    100.00% |           0      0.00%    100.00% |           0      0.00%    100.00% |           0      0.00%    100.00% (Unspecified)
board.cache_hierarchy.ruby_system.m_latencyHistSeqr::total      1104152                       (Unspecified)
board.cache_hierarchy.ruby_system.m_hitLatencyHistSeqr::bucket_size          128                       (Unspecified)
board.cache_hierarchy.ruby_system.m_hitLatencyHistSeqr::max_bucket         1279                       (Unspecified)
board.cache_hierarchy.ruby_system.m_hitLatencyHistSeqr::samples      1064391                       (Unspecified)
board.cache_hierarchy.ruby_system.m_hitLatencyHistSeqr::mean     1.003623                       (Unspecified)
board.cache_hierarchy.ruby_system.m_hitLatencyHistSeqr::gmean     1.000288                       (Unspecified)
board.cache_hierarchy.ruby_system.m_hitLatencyHistSeqr::stdev     1.268505                       (Unspecified)
board.cache_hierarchy.ruby_system.m_hitLatencyHistSeqr |     1064378    100.00%    100.00% |          12      0.00%    100.00% |           0      0.00%    100.00% |           0      0.00%    100.00% |           0      0.00%    100.00% |           0      0.00%    100.00% |           0      0.00%    100.00% |           0      0.00%    100.00% |           1      0.00%    100.00% |           0      0.00%    100.00% (Unspecified)
board.cache_hierarchy.ruby_system.m_hitLatencyHistSeqr::total      1064391                       (Unspecified)
board.cache_hierarchy.ruby_system.m_missLatencyHistSeqr::bucket_size          256                       (Unspecified)
board.cache_hierarchy.ruby_system.m_missLatencyHistSeqr::max_bucket         2559                       (Unspecified)
board.cache_hierarchy.ruby_system.m_missLatencyHistSeqr::samples        39761                       (Unspecified)
board.cache_hierarchy.ruby_system.m_missLatencyHistSeqr::mean   976.195518                       (Unspecified)
board.cache_hierarchy.ruby_system.m_missLatencyHistSeqr::gmean   687.320013                       (Unspecified)
board.cache_hierarchy.ruby_system.m_missLatencyHistSeqr::stdev   447.377820                       (Unspecified)
board.cache_hierarchy.ruby_system.m_missLatencyHistSeqr |        7434     18.70%     18.70% |         421      1.06%     19.76% |         674      1.70%     21.45% |        1245      3.13%     24.58% |       29982     75.41%     99.99% |           5      0.01%    100.00% |           0      0.00%    100.00% |           0      0.00%    100.00% |           0      0.00%    100.00% |           0      0.00%    100.00% (Unspecified)
board.cache_hierarchy.ruby_system.m_missLatencyHistSeqr::total        39761                       (Unspecified)
board.cache_hierarchy.ruby_system.delayVCHist.vnet_0::bucket_size         1024                       # delay histogram for vnet_0 (Unspecified)
board.cache_hierarchy.ruby_system.delayVCHist.vnet_0::max_bucket        10239                       # delay histogram for vnet_0 (Unspecified)
board.cache_hierarchy.ruby_system.delayVCHist.vnet_0::samples        76593                       # delay histogram for vnet_0 (Unspecified)
board.cache_hierarchy.ruby_system.delayVCHist.vnet_0::mean  3411.609194                       # delay histogram for vnet_0 (Unspecified)
board.cache_hierarchy.ruby_system.delayVCHist.vnet_0::stdev  4109.104858                       # delay histogram for vnet_0 (Unspecified)
board.cache_hierarchy.ruby_system.delayVCHist.vnet_0 |       44617     58.25%     58.25% |         361      0.47%     58.72% |         270      0.35%     59.08% |         472      0.62%     59.69% |         385      0.50%     60.19% |         593      0.77%     60.97% |        1276      1.67%     62.63% |        2720      3.55%     66.19% |       25899     33.81%    100.00% |           0      0.00%    100.00% # delay histogram for vnet_0 (Unspecified)
board.cache_hierarchy.ruby_system.delayVCHist.vnet_0::total        76593                       # delay histogram for vnet_0 (Unspecified)
board.cache_hierarchy.ruby_system.delayVCHist.vnet_1::bucket_size            4                       # delay histogram for vnet_1 (Unspecified)
board.cache_hierarchy.ruby_system.delayVCHist.vnet_1::max_bucket           39                       # delay histogram for vnet_1 (Unspecified)
board.cache_hierarchy.ruby_system.delayVCHist.vnet_1::samples        42231                       # delay histogram for vnet_1 (Unspecified)
board.cache_hierarchy.ruby_system.delayVCHist.vnet_1::mean     0.114560                       # delay histogram for vnet_1 (Unspecified)
board.cache_hierarchy.ruby_system.delayVCHist.vnet_1::stdev     0.981498                       # delay histogram for vnet_1 (Unspecified)
board.cache_hierarchy.ruby_system.delayVCHist.vnet_1 |       41614     98.54%     98.54% |         224      0.53%     99.07% |         337      0.80%     99.87% |          16      0.04%     99.91% |          39      0.09%    100.00% |           1      0.00%    100.00% |           0      0.00%    100.00% |           0      0.00%    100.00% |           0      0.00%    100.00% |           0      0.00%    100.00% # delay histogram for vnet_1 (Unspecified)
board.cache_hierarchy.ruby_system.delayVCHist.vnet_1::total        42231                       # delay histogram for vnet_1 (Unspecified)
board.cache_hierarchy.ruby_system.delayVCHist.vnet_2::bucket_size            1                       # delay histogram for vnet_2 (Unspecified)
board.cache_hierarchy.ruby_system.delayVCHist.vnet_2::max_bucket            9                       # delay histogram for vnet_2 (Unspecified)
board.cache_hierarchy.ruby_system.delayVCHist.vnet_2::samples        33739                       # delay histogram for vnet_2 (Unspecified)
board.cache_hierarchy.ruby_system.delayVCHist.vnet_2::mean     0.000119                       # delay histogram for vnet_2 (Unspecified)
board.cache_hierarchy.ruby_system.delayVCHist.vnet_2::stdev     0.015398                       # delay histogram for vnet_2 (Unspecified)
board.cache_hierarchy.ruby_system.delayVCHist.vnet_2 |       33737     99.99%     99.99% |           0      0.00%     99.99% |           2      0.01%    100.00% |           0      0.00%    100.00% |           0      0.00%    100.00% |           0      0.00%    100.00% |           0      0.00%    100.00% |           0      0.00%    100.00% |           0      0.00%    100.00% |           0      0.00%    100.00% # delay histogram for vnet_2 (Unspecified)
board.cache_hierarchy.ruby_system.delayVCHist.vnet_2::total        33739                       # delay histogram for vnet_2 (Unspecified)
board.cache_hierarchy.ruby_system.Directory_Controller.Fetch         1237      0.00%      0.00% (Unspecified)
board.cache_hierarchy.ruby_system.Directory_Controller.Memory_Data         1237      0.00%      0.00% (Unspecified)
board.cache_hierarchy.ruby_system.Directory_Controller.I.Fetch         1237      0.00%      0.00% (Unspecified)
board.cache_hierarchy.ruby_system.Directory_Controller.IM.Memory_Data         1237      0.00%      0.00% (Unspecified)
board.cache_hierarchy.ruby_system.L1Cache_Controller.Load |       13382      4.22%      4.22% |       19031      6.00%     10.21% |       18991      5.98%     16.20% |       18998      5.99%     22.18% |       18992      5.98%     28.16% |       19012      5.99%     34.15% |       18988      5.98%     40.14% |       18988      5.98%     46.12% |       18992      5.98%     52.10% |       19007      5.99%     58.09% |       19003      5.99%     64.08% |       18988      5.98%     70.06% |       19004      5.99%     76.05% |       19009      5.99%     82.04% |       19011      5.99%     88.03% |       18999      5.99%     94.01% |       19000      5.99%    100.00% (Unspecified)
board.cache_hierarchy.ruby_system.L1Cache_Controller.Load::total       317395                       (Unspecified)
board.cache_hierarchy.ruby_system.L1Cache_Controller.Ifetch |       20807      4.22%      4.22% |       29465      5.98%     10.20% |       29444      5.98%     16.18% |       29464      5.98%     22.16% |       29461      5.98%     28.14% |       29480      5.98%     34.12% |       29449      5.98%     40.10% |       29449      5.98%     46.08% |       29447      5.98%     52.06% |       29481      5.98%     58.04% |       29553      6.00%     64.04% |       29462      5.98%     70.02% |       29563      6.00%     76.02% |       29560      6.00%     82.02% |       29488      5.99%     88.00% |       29550      6.00%     94.00% |       29550      6.00%    100.00% (Unspecified)
board.cache_hierarchy.ruby_system.L1Cache_Controller.Ifetch::total       492673                       (Unspecified)
board.cache_hierarchy.ruby_system.L1Cache_Controller.Store |       22855      7.77%      7.77% |       17138      5.83%     13.60% |       16842      5.73%     19.33% |       16842      5.73%     25.05% |       16842      5.73%     30.78% |       16842      5.73%     36.51% |       16842      5.73%     42.23% |       16842      5.73%     47.96% |       16842      5.73%     53.69% |       16842      5.73%     59.41% |       17134      5.83%     65.24% |       16842      5.73%     70.97% |       17134      5.83%     76.79% |       17134      5.83%     82.62% |       16842      5.73%     88.35% |       17134      5.83%     94.17% |       17134      5.83%    100.00% (Unspecified)
board.cache_hierarchy.ruby_system.L1Cache_Controller.Store::total       294083                       (Unspecified)
board.cache_hierarchy.ruby_system.L1Cache_Controller.Inv |          87     32.10%     32.10% |          10      3.69%     35.79% |          10      3.69%     39.48% |          11      4.06%     43.54% |          11      4.06%     47.60% |          12      4.43%     52.03% |          10      3.69%     55.72% |          11      4.06%     59.78% |          11      4.06%     63.84% |          13      4.80%     68.63% |          12      4.43%     73.06% |          16      5.90%     78.97% |          14      5.17%     84.13% |          14      5.17%     89.30% |          12      4.43%     93.73% |          10      3.69%     97.42% |           7      2.58%    100.00% (Unspecified)
board.cache_hierarchy.ruby_system.L1Cache_Controller.Inv::total          271                       (Unspecified)
board.cache_hierarchy.ruby_system.L1Cache_Controller.L1_Replacement |         860     99.54%     99.54% |           0      0.00%     99.54% |           0      0.00%     99.54% |           0      0.00%     99.54% |           0      0.00%     99.54% |           2      0.23%     99.77% |           0      0.00%     99.77% |           0      0.00%     99.77% |           0      0.00%     99.77% |           2      0.23%    100.00% |           0      0.00%    100.00% |           0      0.00%    100.00% |           0      0.00%    100.00% |           0      0.00%    100.00% |           0      0.00%    100.00% |           0      0.00%    100.00% |           0      0.00%    100.00% (Unspecified)
board.cache_hierarchy.ruby_system.L1Cache_Controller.L1_Replacement::total          864                       (Unspecified)
board.cache_hierarchy.ruby_system.L1Cache_Controller.Fwd_GETX |          40      0.12%      0.12% |        1985      6.04%      6.16% |        2056      6.26%     12.42% |        2061      6.27%     18.69% |        2061      6.27%     24.96% |        2061      6.27%     31.23% |        2061      6.27%     37.50% |        2061      6.27%     43.77% |        2061      6.27%     50.05% |        2061      6.27%     56.32% |        2050      6.24%     62.55% |        2061      6.27%     68.83% |        2050      6.24%     75.06% |        2050      6.24%     81.30% |        2049      6.23%     87.54% |        2052      6.24%     93.78% |        2044      6.22%    100.00% (Unspecified)
board.cache_hierarchy.ruby_system.L1Cache_Controller.Fwd_GETX::total        32864                       (Unspecified)
board.cache_hierarchy.ruby_system.L1Cache_Controller.Fwd_GETS |         406     67.22%     67.22% |          21      3.48%     70.70% |          13      2.15%     72.85% |          13      2.15%     75.00% |          13      2.15%     77.15% |          13      2.15%     79.30% |          14      2.32%     81.62% |          13      2.15%     83.77% |          13      2.15%     85.93% |          14      2.32%     88.25% |          12      1.99%     90.23% |          13      2.15%     92.38% |          13      2.15%     94.54% |          10      1.66%     96.19% |           8      1.32%     97.52% |           7      1.16%     98.68% |           8      1.32%    100.00% (Unspecified)
board.cache_hierarchy.ruby_system.L1Cache_Controller.Fwd_GETS::total          604                       (Unspecified)
board.cache_hierarchy.ruby_system.L1Cache_Controller.Data |           0      0.00%      0.00% |           0      0.00%      0.00% |           0      0.00%      0.00% |           0      0.00%      0.00% |           0      0.00%      0.00% |           0      0.00%      0.00% |           0      0.00%      0.00% |           0      0.00%      0.00% |           0      0.00%      0.00% |           0      0.00%      0.00% |           2     28.57%     28.57% |           0      0.00%     28.57% |           2     28.57%     57.14% |           1     14.29%     71.43% |           1     14.29%     85.71% |           1     14.29%    100.00% |           0      0.00%    100.00% (Unspecified)
board.cache_hierarchy.ruby_system.L1Cache_Controller.Data::total            7                       (Unspecified)
board.cache_hierarchy.ruby_system.L1Cache_Controller.Data_Exclusive |          70      3.58%      3.58% |         140      7.16%     10.75% |         132      6.76%     17.50% |         133      6.81%     24.31% |         134      6.86%     31.17% |         133      6.81%     37.97% |         135      6.91%     44.88% |         134      6.86%     51.74% |         134      6.86%     58.60% |         133      6.81%     65.40% |         133      6.81%     72.21% |         133      6.81%     79.02% |         133      6.81%     85.82% |         126      6.45%     92.27% |          76      3.89%     96.16% |          35      1.79%     97.95% |          40      2.05%    100.00% (Unspecified)
board.cache_hierarchy.ruby_system.L1Cache_Controller.Data_Exclusive::total         1954                       (Unspecified)
board.cache_hierarchy.ruby_system.L1Cache_Controller.DataS_fromL1 |          59      9.77%      9.77% |          18      2.98%     12.75% |          25      4.14%     16.89% |          19      3.15%     20.03% |          19      3.15%     23.18% |          19      3.15%     26.32% |          17      2.81%     29.14% |          18      2.98%     32.12% |          18      2.98%     35.10% |          17      2.81%     37.91% |          17      2.81%     40.73% |          18      2.98%     43.71% |          19      3.15%     46.85% |          23      3.81%     50.66% |          77     12.75%     63.41% |         112     18.54%     81.95% |         109     18.05%    100.00% (Unspecified)
board.cache_hierarchy.ruby_system.L1Cache_Controller.DataS_fromL1::total          604                       (Unspecified)
board.cache_hierarchy.ruby_system.L1Cache_Controller.Data_all_Acks |         770      2.08%      2.08% |        2214      5.99%      8.07% |        2231      6.03%     14.10% |        2245      6.07%     20.17% |        2244      6.07%     26.24% |        2252      6.09%     32.33% |        2246      6.07%     38.41% |        2246      6.07%     44.48% |        2246      6.07%     50.56% |        2252      6.09%     56.65% |        2305      6.23%     62.88% |        2247      6.08%     68.96% |        2306      6.24%     75.19% |        2310      6.25%     81.44% |        2249      6.08%     87.52% |        2312      6.25%     93.77% |        2302      6.23%    100.00% (Unspecified)
board.cache_hierarchy.ruby_system.L1Cache_Controller.Data_all_Acks::total        36977                       (Unspecified)
board.cache_hierarchy.ruby_system.L1Cache_Controller.Ack |          39     14.77%     14.77% |           9      3.41%     18.18% |          14      5.30%     23.48% |          13      4.92%     28.41% |          13      4.92%     33.33% |          12      4.55%     37.88% |          14      5.30%     43.18% |          14      5.30%     48.48% |          14      5.30%     53.79% |          14      5.30%     59.09% |          24      9.09%     68.18% |          14      5.30%     73.48% |          18      6.82%     80.30% |          14      5.30%     85.61% |          14      5.30%     90.91% |          13      4.92%     95.83% |          11      4.17%    100.00% (Unspecified)
board.cache_hierarchy.ruby_system.L1Cache_Controller.Ack::total          264                       (Unspecified)
board.cache_hierarchy.ruby_system.L1Cache_Controller.Ack_all |          34     15.04%     15.04% |           9      3.98%     19.03% |          13      5.75%     24.78% |          13      5.75%     30.53% |          13      5.75%     36.28% |          12      5.31%     41.59% |          13      5.75%     47.35% |          13      5.75%     53.10% |          13      5.75%     58.85% |          13      5.75%     64.60% |          13      5.75%     70.35% |          12      5.31%     75.66% |          14      6.19%     81.86% |          10      4.42%     86.28% |          12      5.31%     91.59% |          10      4.42%     96.02% |           9      3.98%    100.00% (Unspecified)
board.cache_hierarchy.ruby_system.L1Cache_Controller.Ack_all::total          226                       (Unspecified)
board.cache_hierarchy.ruby_system.L1Cache_Controller.WB_Ack |         358    100.00%    100.00% |           0      0.00%    100.00% |           0      0.00%    100.00% |           0      0.00%    100.00% |           0      0.00%    100.00% |           0      0.00%    100.00% |           0      0.00%    100.00% |           0      0.00%    100.00% |           0      0.00%    100.00% |           0      0.00%    100.00% |           0      0.00%    100.00% |           0      0.00%    100.00% |           0      0.00%    100.00% |           0      0.00%    100.00% |           0      0.00%    100.00% |           0      0.00%    100.00% |           0      0.00%    100.00% (Unspecified)
board.cache_hierarchy.ruby_system.L1Cache_Controller.WB_Ack::total          358                       (Unspecified)
board.cache_hierarchy.ruby_system.L1Cache_Controller.NP.Load |         127      4.67%      4.67% |         157      5.78%     10.45% |         162      5.96%     16.42% |         164      6.04%     22.45% |         164      6.04%     28.49% |         164      6.04%     34.52% |         164      6.04%     40.56% |         164      6.04%     46.60% |         164      6.04%     52.63% |         164      6.04%     58.67% |         159      5.85%     64.52% |         163      6.00%     70.52% |         159      5.85%     76.37% |         160      5.89%     82.26% |         164      6.04%     88.30% |         159      5.85%     94.15% |         159      5.85%    100.00% (Unspecified)
board.cache_hierarchy.ruby_system.L1Cache_Controller.NP.Load::total         2717                       (Unspecified)
board.cache_hierarchy.ruby_system.L1Cache_Controller.NP.Ifetch |         338     11.08%     11.08% |         182      5.97%     17.05% |         156      5.11%     22.16% |         159      5.21%     27.38% |         159      5.21%     32.59% |         165      5.41%     38.00% |         160      5.25%     43.25% |         160      5.25%     48.49% |         160      5.25%     53.74% |         163      5.34%     59.08% |         186      6.10%     65.18% |         159      5.21%     70.39% |         186      6.10%     76.49% |         185      6.07%     82.56% |         161      5.28%     87.84% |         186      6.10%     93.93% |         185      6.07%    100.00% (Unspecified)
board.cache_hierarchy.ruby_system.L1Cache_Controller.NP.Ifetch::total         3050                       (Unspecified)
board.cache_hierarchy.ruby_system.L1Cache_Controller.NP.Store |         395     38.88%     38.88% |          61      6.00%     44.88% |          27      2.66%     47.54% |          26      2.56%     50.10% |          26      2.56%     52.66% |          26      2.56%     55.22% |          26      2.56%     57.78% |          26      2.56%     60.33% |          26      2.56%     62.89% |          26      2.56%     65.45% |          60      5.91%     71.36% |          26      2.56%     73.92% |          60      5.91%     79.82% |          59      5.81%     85.63% |          26      2.56%     88.19% |          60      5.91%     94.09% |          60      5.91%    100.00% (Unspecified)
board.cache_hierarchy.ruby_system.L1Cache_Controller.NP.Store::total         1016                       (Unspecified)
board.cache_hierarchy.ruby_system.L1Cache_Controller.NP.Inv |          10    100.00%    100.00% |           0      0.00%    100.00% |           0      0.00%    100.00% |           0      0.00%    100.00% |           0      0.00%    100.00% |           0      0.00%    100.00% |           0      0.00%    100.00% |           0      0.00%    100.00% |           0      0.00%    100.00% |           0      0.00%    100.00% |           0      0.00%    100.00% |           0      0.00%    100.00% |           0      0.00%    100.00% |           0      0.00%    100.00% |           0      0.00%    100.00% |           0      0.00%    100.00% |           0      0.00%    100.00% (Unspecified)
board.cache_hierarchy.ruby_system.L1Cache_Controller.NP.Inv::total           10                       (Unspecified)
board.cache_hierarchy.ruby_system.L1Cache_Controller.I.Load |          35     45.45%     45.45% |           1      1.30%     46.75% |           1      1.30%     48.05% |           1      1.30%     49.35% |           1      1.30%     50.65% |           1      1.30%     51.95% |           1      1.30%     53.25% |           1      1.30%     54.55% |           1      1.30%     55.84% |           1      1.30%     57.14% |           4      5.19%     62.34% |           2      2.60%     64.94% |           7      9.09%     74.03% |           7      9.09%     83.12% |           3      3.90%     87.01% |           7      9.09%     96.10% |           3      3.90%    100.00% (Unspecified)
board.cache_hierarchy.ruby_system.L1Cache_Controller.I.Load::total           77                       (Unspecified)
board.cache_hierarchy.ruby_system.L1Cache_Controller.I.Store |           3      0.01%      0.01% |        1971      6.03%      6.04% |        2042      6.25%     12.29% |        2047      6.26%     18.55% |        2047      6.26%     24.82% |        2048      6.27%     31.08% |        2047      6.26%     37.35% |        2047      6.26%     43.61% |        2047      6.26%     49.87% |        2048      6.27%     56.14% |        2048      6.27%     62.41% |        2048      6.27%     68.67% |        2048      6.27%     74.94% |        2049      6.27%     81.21% |        2049      6.27%     87.48% |        2048      6.27%     93.75% |        2044      6.25%    100.00% (Unspecified)
board.cache_hierarchy.ruby_system.L1Cache_Controller.I.Store::total        32681                       (Unspecified)
board.cache_hierarchy.ruby_system.L1Cache_Controller.I.L1_Replacement |          57    100.00%    100.00% |           0      0.00%    100.00% |           0      0.00%    100.00% |           0      0.00%    100.00% |           0      0.00%    100.00% |           0      0.00%    100.00% |           0      0.00%    100.00% |           0      0.00%    100.00% |           0      0.00%    100.00% |           0      0.00%    100.00% |           0      0.00%    100.00% |           0      0.00%    100.00% |           0      0.00%    100.00% |           0      0.00%    100.00% |           0      0.00%    100.00% |           0      0.00%    100.00% |           0      0.00%    100.00% (Unspecified)
board.cache_hierarchy.ruby_system.L1Cache_Controller.I.L1_Replacement::total           57                       (Unspecified)
board.cache_hierarchy.ruby_system.L1Cache_Controller.S.Load |         241      4.59%      4.59% |          67      1.28%      5.86% |          77      1.47%      7.33% |          68      1.29%      8.63% |          71      1.35%      9.98% |          76      1.45%     11.42% |          66      1.26%     12.68% |          67      1.28%     13.96% |          72      1.37%     15.33% |          76      1.45%     16.77% |          84      1.60%     18.37% |          75      1.43%     19.80% |          75      1.43%     21.23% |         177      3.37%     24.60% |         951     18.11%     42.71% |        1540     29.32%     72.03% |        1469     27.97%    100.00% (Unspecified)
board.cache_hierarchy.ruby_system.L1Cache_Controller.S.Load::total         5252                       (Unspecified)
board.cache_hierarchy.ruby_system.L1Cache_Controller.S.Ifetch |       20469      4.18%      4.18% |       29283      5.98%     10.16% |       29288      5.98%     16.14% |       29305      5.99%     22.13% |       29302      5.98%     28.11% |       29315      5.99%     34.10% |       29289      5.98%     40.08% |       29289      5.98%     46.06% |       29287      5.98%     52.05% |       29318      5.99%     58.03% |       29367      6.00%     64.03% |       29303      5.98%     70.02% |       29377      6.00%     76.02% |       29375      6.00%     82.02% |       29327      5.99%     88.01% |       29364      6.00%     94.00% |       29365      6.00%    100.00% (Unspecified)
board.cache_hierarchy.ruby_system.L1Cache_Controller.S.Ifetch::total       489623                       (Unspecified)
board.cache_hierarchy.ruby_system.L1Cache_Controller.S.Store |          34     15.53%     15.53% |           9      4.11%     19.63% |          13      5.94%     25.57% |          13      5.94%     31.51% |          13      5.94%     37.44% |          12      5.48%     42.92% |          13      5.94%     48.86% |          13      5.94%     54.79% |          13      5.94%     60.73% |          13      5.94%     66.67% |          11      5.02%     71.69% |          12      5.48%     77.17% |          12      5.48%     82.65% |           9      4.11%     86.76% |          11      5.02%     91.78% |           9      4.11%     95.89% |           9      4.11%    100.00% (Unspecified)
board.cache_hierarchy.ruby_system.L1Cache_Controller.S.Store::total          219                       (Unspecified)
board.cache_hierarchy.ruby_system.L1Cache_Controller.S.Inv |          77     29.50%     29.50% |          10      3.83%     33.33% |          10      3.83%     37.16% |          11      4.21%     41.38% |          11      4.21%     45.59% |          12      4.60%     50.19% |          10      3.83%     54.02% |          11      4.21%     58.24% |          11      4.21%     62.45% |          13      4.98%     67.43% |          12      4.60%     72.03% |          16      6.13%     78.16% |          14      5.36%     83.52% |          14      5.36%     88.89% |          12      4.60%     93.49% |          10      3.83%     97.32% |           7      2.68%    100.00% (Unspecified)
board.cache_hierarchy.ruby_system.L1Cache_Controller.S.Inv::total          261                       (Unspecified)
board.cache_hierarchy.ruby_system.L1Cache_Controller.S.L1_Replacement |         445     99.11%     99.11% |           0      0.00%     99.11% |           0      0.00%     99.11% |           0      0.00%     99.11% |           0      0.00%     99.11% |           2      0.45%     99.55% |           0      0.00%     99.55% |           0      0.00%     99.55% |           0      0.00%     99.55% |           2      0.45%    100.00% |           0      0.00%    100.00% |           0      0.00%    100.00% |           0      0.00%    100.00% |           0      0.00%    100.00% |           0      0.00%    100.00% |           0      0.00%    100.00% |           0      0.00%    100.00% (Unspecified)
board.cache_hierarchy.ruby_system.L1Cache_Controller.S.L1_Replacement::total          449                       (Unspecified)
board.cache_hierarchy.ruby_system.L1Cache_Controller.E.Load |        1591      5.60%      5.60% |        1919      6.75%     12.35% |        1916      6.74%     19.09% |        1916      6.74%     25.83% |        1916      6.74%     32.57% |        1916      6.74%     39.31% |        1920      6.75%     46.06% |        1916      6.74%     52.80% |        1916      6.74%     59.54% |        1916      6.74%     66.28% |        1916      6.74%     73.02% |        1916      6.74%     79.77% |        1916      6.74%     86.51% |        1811      6.37%     92.88% |        1050      3.69%     96.57% |         450      1.58%     98.15% |         525      1.85%    100.00% (Unspecified)
board.cache_hierarchy.ruby_system.L1Cache_Controller.E.Load::total        28426                       (Unspecified)
board.cache_hierarchy.ruby_system.L1Cache_Controller.E.Store |          16     53.33%     53.33% |           0      0.00%     53.33% |           0      0.00%     53.33% |           1      3.33%     56.67% |           1      3.33%     60.00% |           1      3.33%     63.33% |           1      3.33%     66.67% |           1      3.33%     70.00% |           1      3.33%     73.33% |           1      3.33%     76.67% |           1      3.33%     80.00% |           1      3.33%     83.33% |           1      3.33%     86.67% |           1      3.33%     90.00% |           1      3.33%     93.33% |           1      3.33%     96.67% |           1      3.33%    100.00% (Unspecified)
board.cache_hierarchy.ruby_system.L1Cache_Controller.E.Store::total           30                       (Unspecified)
board.cache_hierarchy.ruby_system.L1Cache_Controller.E.L1_Replacement |          11    100.00%    100.00% |           0      0.00%    100.00% |           0      0.00%    100.00% |           0      0.00%    100.00% |           0      0.00%    100.00% |           0      0.00%    100.00% |           0      0.00%    100.00% |           0      0.00%    100.00% |           0      0.00%    100.00% |           0      0.00%    100.00% |           0      0.00%    100.00% |           0      0.00%    100.00% |           0      0.00%    100.00% |           0      0.00%    100.00% |           0      0.00%    100.00% |           0      0.00%    100.00% |           0      0.00%    100.00% (Unspecified)
board.cache_hierarchy.ruby_system.L1Cache_Controller.E.L1_Replacement::total           11                       (Unspecified)
board.cache_hierarchy.ruby_system.L1Cache_Controller.E.Fwd_GETS |           6     13.95%     13.95% |           9     20.93%     34.88% |           2      4.65%     39.53% |           2      4.65%     44.19% |           2      4.65%     48.84% |           2      4.65%     53.49% |           3      6.98%     60.47% |           2      4.65%     65.12% |           2      4.65%     69.77% |           2      4.65%     74.42% |           2      4.65%     79.07% |           2      4.65%     83.72% |           2      4.65%     88.37% |           2      4.65%     93.02% |           1      2.33%     95.35% |           1      2.33%     97.67% |           1      2.33%    100.00% (Unspecified)
board.cache_hierarchy.ruby_system.L1Cache_Controller.E.Fwd_GETS::total           43                       (Unspecified)
board.cache_hierarchy.ruby_system.L1Cache_Controller.M.Load |       11388      4.05%      4.05% |       16887      6.01%     10.07% |       16835      5.99%     16.06% |       16849      6.00%     22.06% |       16840      5.99%     28.05% |       16855      6.00%     34.05% |       16837      5.99%     40.04% |       16840      5.99%     46.04% |       16839      5.99%     52.03% |       16850      6.00%     58.03% |       16840      5.99%     64.02% |       16832      5.99%     70.02% |       16847      6.00%     76.01% |       16854      6.00%     82.01% |       16843      6.00%     88.01% |       16843      6.00%     94.00% |       16844      6.00%    100.00% (Unspecified)
board.cache_hierarchy.ruby_system.L1Cache_Controller.M.Load::total       280923                       (Unspecified)
board.cache_hierarchy.ruby_system.L1Cache_Controller.M.Store |       22407      8.61%      8.61% |       15097      5.80%     14.42% |       14760      5.67%     20.09% |       14755      5.67%     25.76% |       14755      5.67%     31.43% |       14755      5.67%     37.11% |       14755      5.67%     42.78% |       14755      5.67%     48.45% |       14755      5.67%     54.12% |       14754      5.67%     59.79% |       15014      5.77%     65.57% |       14755      5.67%     71.24% |       15013      5.77%     77.01% |       15016      5.77%     82.78% |       14755      5.67%     88.45% |       15016      5.77%     94.23% |       15020      5.77%    100.00% (Unspecified)
board.cache_hierarchy.ruby_system.L1Cache_Controller.M.Store::total       260137                       (Unspecified)
board.cache_hierarchy.ruby_system.L1Cache_Controller.M.L1_Replacement |         347    100.00%    100.00% |           0      0.00%    100.00% |           0      0.00%    100.00% |           0      0.00%    100.00% |           0      0.00%    100.00% |           0      0.00%    100.00% |           0      0.00%    100.00% |           0      0.00%    100.00% |           0      0.00%    100.00% |           0      0.00%    100.00% |           0      0.00%    100.00% |           0      0.00%    100.00% |           0      0.00%    100.00% |           0      0.00%    100.00% |           0      0.00%    100.00% |           0      0.00%    100.00% |           0      0.00%    100.00% (Unspecified)
board.cache_hierarchy.ruby_system.L1Cache_Controller.M.L1_Replacement::total          347                       (Unspecified)
board.cache_hierarchy.ruby_system.L1Cache_Controller.M.Fwd_GETX |          40      0.12%      0.12% |        1985      6.04%      6.16% |        2056      6.26%     12.42% |        2061      6.27%     18.69% |        2061      6.27%     24.96% |        2061      6.27%     31.23% |        2061      6.27%     37.50% |        2061      6.27%     43.77% |        2061      6.27%     50.05% |        2061      6.27%     56.32% |        2050      6.24%     62.55% |        2061      6.27%     68.83% |        2050      6.24%     75.06% |        2050      6.24%     81.30% |        2049      6.23%     87.54% |        2052      6.24%     93.78% |        2044      6.22%    100.00% (Unspecified)
board.cache_hierarchy.ruby_system.L1Cache_Controller.M.Fwd_GETX::total        32864                       (Unspecified)
board.cache_hierarchy.ruby_system.L1Cache_Controller.M.Fwd_GETS |         400     71.30%     71.30% |          12      2.14%     73.44% |          11      1.96%     75.40% |          11      1.96%     77.36% |          11      1.96%     79.32% |          11      1.96%     81.28% |          11      1.96%     83.24% |          11      1.96%     85.20% |          11      1.96%     87.17% |          12      2.14%     89.30% |          10      1.78%     91.09% |          11      1.96%     93.05% |          11      1.96%     95.01% |           8      1.43%     96.43% |           7      1.25%     97.68% |           6      1.07%     98.75% |           7      1.25%    100.00% (Unspecified)
board.cache_hierarchy.ruby_system.L1Cache_Controller.M.Fwd_GETS::total          561                       (Unspecified)
board.cache_hierarchy.ruby_system.L1Cache_Controller.IS.Data_Exclusive |          70      3.58%      3.58% |         140      7.16%     10.75% |         132      6.76%     17.50% |         133      6.81%     24.31% |         134      6.86%     31.17% |         133      6.81%     37.97% |         135      6.91%     44.88% |         134      6.86%     51.74% |         134      6.86%     58.60% |         133      6.81%     65.40% |         133      6.81%     72.21% |         133      6.81%     79.02% |         133      6.81%     85.82% |         126      6.45%     92.27% |          76      3.89%     96.16% |          35      1.79%     97.95% |          40      2.05%    100.00% (Unspecified)
board.cache_hierarchy.ruby_system.L1Cache_Controller.IS.Data_Exclusive::total         1954                       (Unspecified)
board.cache_hierarchy.ruby_system.L1Cache_Controller.IS.DataS_fromL1 |          59      9.77%      9.77% |          18      2.98%     12.75% |          25      4.14%     16.89% |          19      3.15%     20.03% |          19      3.15%     23.18% |          19      3.15%     26.32% |          17      2.81%     29.14% |          18      2.98%     32.12% |          18      2.98%     35.10% |          17      2.81%     37.91% |          17      2.81%     40.73% |          18      2.98%     43.71% |          19      3.15%     46.85% |          23      3.81%     50.66% |          77     12.75%     63.41% |         112     18.54%     81.95% |         109     18.05%    100.00% (Unspecified)
board.cache_hierarchy.ruby_system.L1Cache_Controller.IS.DataS_fromL1::total          604                       (Unspecified)
board.cache_hierarchy.ruby_system.L1Cache_Controller.IS.Data_all_Acks |         372     11.32%     11.32% |         182      5.54%     16.85% |         162      4.93%     21.78% |         172      5.23%     27.02% |         171      5.20%     32.22% |         178      5.42%     37.63% |         173      5.26%     42.90% |         173      5.26%     48.16% |         173      5.26%     53.42% |         178      5.42%     58.84% |         199      6.05%     64.89% |         173      5.26%     70.16% |         200      6.08%     76.24% |         203      6.18%     82.42% |         175      5.32%     87.74% |         205      6.24%     93.98% |         198      6.02%    100.00% (Unspecified)
board.cache_hierarchy.ruby_system.L1Cache_Controller.IS.Data_all_Acks::total         3287                       (Unspecified)
board.cache_hierarchy.ruby_system.L1Cache_Controller.IM.Data |           0      0.00%      0.00% |           0      0.00%      0.00% |           0      0.00%      0.00% |           0      0.00%      0.00% |           0      0.00%      0.00% |           0      0.00%      0.00% |           0      0.00%      0.00% |           0      0.00%      0.00% |           0      0.00%      0.00% |           0      0.00%      0.00% |           2     28.57%     28.57% |           0      0.00%     28.57% |           2     28.57%     57.14% |           1     14.29%     71.43% |           1     14.29%     85.71% |           1     14.29%    100.00% |           0      0.00%    100.00% (Unspecified)
board.cache_hierarchy.ruby_system.L1Cache_Controller.IM.Data::total            7                       (Unspecified)
board.cache_hierarchy.ruby_system.L1Cache_Controller.IM.Data_all_Acks |         398      1.18%      1.18% |        2032      6.03%      7.21% |        2069      6.14%     13.35% |        2073      6.15%     19.51% |        2073      6.15%     25.66% |        2074      6.16%     31.82% |        2073      6.15%     37.97% |        2073      6.15%     44.12% |        2073      6.15%     50.28% |        2074      6.16%     56.43% |        2106      6.25%     62.68% |        2074      6.16%     68.84% |        2106      6.25%     75.09% |        2107      6.25%     81.34% |        2074      6.16%     87.50% |        2107      6.25%     93.75% |        2104      6.25%    100.00% (Unspecified)
board.cache_hierarchy.ruby_system.L1Cache_Controller.IM.Data_all_Acks::total        33690                       (Unspecified)
board.cache_hierarchy.ruby_system.L1Cache_Controller.SM.Ack |          39     14.77%     14.77% |           9      3.41%     18.18% |          14      5.30%     23.48% |          13      4.92%     28.41% |          13      4.92%     33.33% |          12      4.55%     37.88% |          14      5.30%     43.18% |          14      5.30%     48.48% |          14      5.30%     53.79% |          14      5.30%     59.09% |          24      9.09%     68.18% |          14      5.30%     73.48% |          18      6.82%     80.30% |          14      5.30%     85.61% |          14      5.30%     90.91% |          13      4.92%     95.83% |          11      4.17%    100.00% (Unspecified)
board.cache_hierarchy.ruby_system.L1Cache_Controller.SM.Ack::total          264                       (Unspecified)
board.cache_hierarchy.ruby_system.L1Cache_Controller.SM.Ack_all |          34     15.04%     15.04% |           9      3.98%     19.03% |          13      5.75%     24.78% |          13      5.75%     30.53% |          13      5.75%     36.28% |          12      5.31%     41.59% |          13      5.75%     47.35% |          13      5.75%     53.10% |          13      5.75%     58.85% |          13      5.75%     64.60% |          13      5.75%     70.35% |          12      5.31%     75.66% |          14      6.19%     81.86% |          10      4.42%     86.28% |          12      5.31%     91.59% |          10      4.42%     96.02% |           9      3.98%    100.00% (Unspecified)
board.cache_hierarchy.ruby_system.L1Cache_Controller.SM.Ack_all::total          226                       (Unspecified)
board.cache_hierarchy.ruby_system.L1Cache_Controller.M_I.WB_Ack |         358    100.00%    100.00% |           0      0.00%    100.00% |           0      0.00%    100.00% |           0      0.00%    100.00% |           0      0.00%    100.00% |           0      0.00%    100.00% |           0      0.00%    100.00% |           0      0.00%    100.00% |           0      0.00%    100.00% |           0      0.00%    100.00% |           0      0.00%    100.00% |           0      0.00%    100.00% |           0      0.00%    100.00% |           0      0.00%    100.00% |           0      0.00%    100.00% |           0      0.00%    100.00% |           0      0.00%    100.00% (Unspecified)
board.cache_hierarchy.ruby_system.L1Cache_Controller.M_I.WB_Ack::total          358                       (Unspecified)
board.cache_hierarchy.ruby_system.L2Cache_Controller.L1_GET_INSTR |         143      4.69%      4.69% |         172      5.64%     10.32% |         222      7.28%     17.60% |         251      8.23%     25.83% |         217      7.11%     32.94% |         180      5.90%     38.84% |         208      6.82%     45.66% |         156      5.11%     50.77% |         220      7.21%     57.98% |         219      7.18%     65.16% |         209      6.85%     72.01% |         208      6.82%     78.83% |         200      6.56%     85.38% |         180      5.90%     91.28% |         153      5.01%     96.30% |         113      3.70%    100.00% (Unspecified)
board.cache_hierarchy.ruby_system.L2Cache_Controller.L1_GET_INSTR::total         3051                       (Unspecified)
board.cache_hierarchy.ruby_system.L2Cache_Controller.L1_GETS |         148      5.29%      5.29% |         215      7.68%     12.96% |         192      6.86%     19.82% |         200      7.14%     26.96% |         181      6.46%     33.43% |         184      6.57%     40.00% |         173      6.18%     46.18% |         140      5.00%     51.18% |         136      4.86%     56.04% |         192      6.86%     62.89% |         208      7.43%     70.32% |         133      4.75%     75.07% |         163      5.82%     80.89% |         156      5.57%     86.46% |         198      7.07%     93.54% |         181      6.46%    100.00% (Unspecified)
board.cache_hierarchy.ruby_system.L2Cache_Controller.L1_GETS::total         2800                       (Unspecified)
board.cache_hierarchy.ruby_system.L2Cache_Controller.L1_GETX |      494443     99.81%     99.81% |          55      0.01%     99.82% |          58      0.01%     99.83% |          59      0.01%     99.84% |          96      0.02%     99.86% |         100      0.02%     99.88% |          78      0.02%     99.90% |          84      0.02%     99.91% |          84      0.02%     99.93% |          51      0.01%     99.94% |          58      0.01%     99.95% |          36      0.01%     99.96% |          68      0.01%     99.97% |          67      0.01%     99.99% |          36      0.01%     99.99% |          34      0.01%    100.00% (Unspecified)
board.cache_hierarchy.ruby_system.L2Cache_Controller.L1_GETX::total       495407                       (Unspecified)
board.cache_hierarchy.ruby_system.L2Cache_Controller.L1_UPGRADE |           1      0.45%      0.45% |          65     29.55%     30.00% |          25     11.36%     41.36% |          12      5.45%     46.82% |          11      5.00%     51.82% |          33     15.00%     66.82% |           6      2.73%     69.55% |           5      2.27%     71.82% |           2      0.91%     72.73% |           2      0.91%     73.64% |          25     11.36%     85.00% |           0      0.00%     85.00% |          12      5.45%     90.45% |           3      1.36%     91.82% |          17      7.73%     99.55% |           1      0.45%    100.00% (Unspecified)
board.cache_hierarchy.ruby_system.L2Cache_Controller.L1_UPGRADE::total          220                       (Unspecified)
board.cache_hierarchy.ruby_system.L2Cache_Controller.L1_PUTX |           8      2.23%      2.23% |          19      5.31%      7.54% |          15      4.19%     11.73% |          31      8.66%     20.39% |          46     12.85%     33.24% |          31      8.66%     41.90% |          30      8.38%     50.28% |          15      4.19%     54.47% |          15      4.19%     58.66% |          15      4.19%     62.85% |          31      8.66%     71.51% |          11      3.07%     74.58% |          29      8.10%     82.68% |          39     10.89%     93.58% |          15      4.19%     97.77% |           8      2.23%    100.00% (Unspecified)
board.cache_hierarchy.ruby_system.L2Cache_Controller.L1_PUTX::total          358                       (Unspecified)
board.cache_hierarchy.ruby_system.L2Cache_Controller.Mem_Data |          65      5.25%      5.25% |          78      6.31%     11.56% |          83      6.71%     18.27% |          85      6.87%     25.14% |          99      8.00%     33.14% |         101      8.16%     41.31% |          78      6.31%     47.62% |          75      6.06%     53.68% |          77      6.22%     59.90% |          84      6.79%     66.69% |          67      5.42%     72.11% |          48      3.88%     75.99% |          70      5.66%     81.65% |          83      6.71%     88.36% |          71      5.74%     94.10% |          73      5.90%    100.00% (Unspecified)
board.cache_hierarchy.ruby_system.L2Cache_Controller.Mem_Data::total         1237                       (Unspecified)
board.cache_hierarchy.ruby_system.L2Cache_Controller.WB_Data |          23      4.10%      4.10% |          96     17.11%     21.21% |          58     10.34%     31.55% |          28      4.99%     36.54% |          29      5.17%     41.71% |          59     10.52%     52.23% |          21      3.74%     55.97% |          21      3.74%     59.71% |          19      3.39%     63.10% |          38      6.77%     69.88% |          45      8.02%     77.90% |          19      3.39%     81.28% |          27      4.81%     86.10% |          19      3.39%     89.48% |          34      6.06%     95.54% |          25      4.46%    100.00% (Unspecified)
board.cache_hierarchy.ruby_system.L2Cache_Controller.WB_Data::total          561                       (Unspecified)
board.cache_hierarchy.ruby_system.L2Cache_Controller.WB_Data_clean |          12     27.91%     27.91% |           0      0.00%     27.91% |           1      2.33%     30.23% |          17     39.53%     69.77% |           1      2.33%     72.09% |           1      2.33%     74.42% |           1      2.33%     76.74% |           0      0.00%     76.74% |           0      0.00%     76.74% |           1      2.33%     79.07% |           2      4.65%     83.72% |           0      0.00%     83.72% |           1      2.33%     86.05% |           1      2.33%     88.37% |           3      6.98%     95.35% |           2      4.65%    100.00% (Unspecified)
board.cache_hierarchy.ruby_system.L2Cache_Controller.WB_Data_clean::total           43                       (Unspecified)
board.cache_hierarchy.ruby_system.L2Cache_Controller.Unblock |          35      5.79%      5.79% |          96     15.89%     21.69% |          59      9.77%     31.46% |          45      7.45%     38.91% |          30      4.97%     43.87% |          60      9.93%     53.81% |          22      3.64%     57.45% |          21      3.48%     60.93% |          19      3.15%     64.07% |          39      6.46%     70.53% |          47      7.78%     78.31% |          19      3.15%     81.46% |          28      4.64%     86.09% |          20      3.31%     89.40% |          37      6.13%     95.53% |          27      4.47%    100.00% (Unspecified)
board.cache_hierarchy.ruby_system.L2Cache_Controller.Unblock::total          604                       (Unspecified)
board.cache_hierarchy.ruby_system.L2Cache_Controller.Exclusive_Unblock |       32843     91.56%     91.56% |         236      0.66%     92.22% |         199      0.55%     92.77% |         202      0.56%     93.34% |         243      0.68%     94.01% |         257      0.72%     94.73% |         207      0.58%     95.31% |         206      0.57%     95.88% |         203      0.57%     96.45% |         186      0.52%     96.97% |         202      0.56%     97.53% |         149      0.42%     97.95% |         200      0.56%     98.50% |         192      0.54%     99.04% |         184      0.51%     99.55% |         161      0.45%    100.00% (Unspecified)
board.cache_hierarchy.ruby_system.L2Cache_Controller.Exclusive_Unblock::total        35870                       (Unspecified)
board.cache_hierarchy.ruby_system.L2Cache_Controller.NP.L1_GET_INSTR |          25      6.54%      6.54% |          25      6.54%     13.09% |          26      6.81%     19.90% |          28      7.33%     27.23% |          26      6.81%     34.03% |          26      6.81%     40.84% |          19      4.97%     45.81% |          18      4.71%     50.52% |          20      5.24%     55.76% |          26      6.81%     62.57% |          25      6.54%     69.11% |          22      5.76%     74.87% |          27      7.07%     81.94% |          26      6.81%     88.74% |          21      5.50%     94.24% |          22      5.76%    100.00% (Unspecified)
board.cache_hierarchy.ruby_system.L2Cache_Controller.NP.L1_GET_INSTR::total          382                       (Unspecified)
board.cache_hierarchy.ruby_system.L2Cache_Controller.NP.L1_GETS |           0      0.00%      0.00% |           2      2.70%      2.70% |           0      0.00%      2.70% |           0      0.00%      2.70% |          16     21.62%     24.32% |           1      1.35%     25.68% |           2      2.70%     28.38% |           0      0.00%     28.38% |           0      0.00%     28.38% |          18     24.32%     52.70% |           2      2.70%     55.41% |           1      1.35%     56.76% |           1      1.35%     58.11% |           0      0.00%     58.11% |          14     18.92%     77.03% |          17     22.97%    100.00% (Unspecified)
board.cache_hierarchy.ruby_system.L2Cache_Controller.NP.L1_GETS::total           74                       (Unspecified)
board.cache_hierarchy.ruby_system.L2Cache_Controller.NP.L1_GETX |          40      5.12%      5.12% |          51      6.53%     11.65% |          57      7.30%     18.95% |          57      7.30%     26.25% |          57      7.30%     33.55% |          74      9.48%     43.02% |          57      7.30%     50.32% |          57      7.30%     57.62% |          57      7.30%     64.92% |          40      5.12%     70.04% |          40      5.12%     75.16% |          25      3.20%     78.36% |          42      5.38%     83.74% |          57      7.30%     91.04% |          36      4.61%     95.65% |          34      4.35%    100.00% (Unspecified)
board.cache_hierarchy.ruby_system.L2Cache_Controller.NP.L1_GETX::total          781                       (Unspecified)
board.cache_hierarchy.ruby_system.L2Cache_Controller.SS.L1_GET_INSTR |         118      4.42%      4.42% |         147      5.51%      9.93% |         195      7.31%     17.24% |         223      8.36%     25.60% |         191      7.16%     32.76% |         154      5.77%     38.53% |         189      7.08%     45.61% |         138      5.17%     50.79% |         200      7.50%     58.28% |         193      7.23%     65.52% |         184      6.90%     72.41% |         186      6.97%     79.39% |         173      6.48%     85.87% |         154      5.77%     91.64% |         132      4.95%     96.59% |          91      3.41%    100.00% (Unspecified)
board.cache_hierarchy.ruby_system.L2Cache_Controller.SS.L1_GET_INSTR::total         2668                       (Unspecified)
board.cache_hierarchy.ruby_system.L2Cache_Controller.SS.L1_GETS |           4      1.69%      1.69% |           2      0.85%      2.54% |          17      7.20%      9.75% |          24     10.17%     19.92% |          15      6.36%     26.27% |           0      0.00%     26.27% |          28     11.86%     38.14% |           2      0.85%     38.98% |           0      0.00%     38.98% |          20      8.47%     47.46% |          36     15.25%     62.71% |           1      0.42%     63.14% |          15      6.36%     69.49% |          14      5.93%     75.42% |          30     12.71%     88.14% |          28     11.86%    100.00% (Unspecified)
board.cache_hierarchy.ruby_system.L2Cache_Controller.SS.L1_GETS::total          236                       (Unspecified)
board.cache_hierarchy.ruby_system.L2Cache_Controller.SS.L1_GETX |           0      0.00%      0.00% |           0      0.00%      0.00% |           0      0.00%      0.00% |           0      0.00%      0.00% |           2     28.57%     28.57% |           0      0.00%     28.57% |           0      0.00%     28.57% |           0      0.00%     28.57% |           0      0.00%     28.57% |           0      0.00%     28.57% |           5     71.43%    100.00% |           0      0.00%    100.00% |           0      0.00%    100.00% |           0      0.00%    100.00% |           0      0.00%    100.00% |           0      0.00%    100.00% (Unspecified)
board.cache_hierarchy.ruby_system.L2Cache_Controller.SS.L1_GETX::total            7                       (Unspecified)
board.cache_hierarchy.ruby_system.L2Cache_Controller.SS.L1_UPGRADE |           1      0.46%      0.46% |          65     29.68%     30.14% |          25     11.42%     41.55% |          12      5.48%     47.03% |          11      5.02%     52.05% |          33     15.07%     67.12% |           6      2.74%     69.86% |           5      2.28%     72.15% |           2      0.91%     73.06% |           2      0.91%     73.97% |          24     10.96%     84.93% |           0      0.00%     84.93% |          12      5.48%     90.41% |           3      1.37%     91.78% |          17      7.76%     99.54% |           1      0.46%    100.00% (Unspecified)
board.cache_hierarchy.ruby_system.L2Cache_Controller.SS.L1_UPGRADE::total          219                       (Unspecified)
board.cache_hierarchy.ruby_system.L2Cache_Controller.M.L1_GETS |         109      5.80%      5.80% |         114      6.06%     11.86% |         116      6.17%     18.03% |         131      6.97%     25.00% |         120      6.38%     31.38% |         123      6.54%     37.93% |         121      6.44%     44.36% |         117      6.22%     50.59% |         117      6.22%     56.81% |         115      6.12%     62.93% |         118      6.28%     69.20% |         112      5.96%     75.16% |         119      6.33%     81.49% |         122      6.49%     87.98% |         117      6.22%     94.20% |         109      5.80%    100.00% (Unspecified)
board.cache_hierarchy.ruby_system.L2Cache_Controller.M.L1_GETS::total         1880                       (Unspecified)
board.cache_hierarchy.ruby_system.L2Cache_Controller.M.L1_GETX |           2      4.44%      4.44% |           1      2.22%      6.67% |           1      2.22%      8.89% |           2      4.44%     13.33% |          20     44.44%     57.78% |           0      0.00%     57.78% |           1      2.22%     60.00% |           1      2.22%     62.22% |           1      2.22%     64.44% |           1      2.22%     66.67% |           1      2.22%     68.89% |           1      2.22%     71.11% |          13     28.89%    100.00% |           0      0.00%    100.00% |           0      0.00%    100.00% |           0      0.00%    100.00% (Unspecified)
board.cache_hierarchy.ruby_system.L2Cache_Controller.M.L1_GETX::total           45                       (Unspecified)
board.cache_hierarchy.ruby_system.L2Cache_Controller.MT.L1_GETS |          35      5.79%      5.79% |          96     15.89%     21.69% |          59      9.77%     31.46% |          45      7.45%     38.91% |          30      4.97%     43.87% |          60      9.93%     53.81% |          22      3.64%     57.45% |          21      3.48%     60.93% |          19      3.15%     64.07% |          39      6.46%     70.53% |          47      7.78%     78.31% |          19      3.15%     81.46% |          28      4.64%     86.09% |          20      3.31%     89.40% |          37      6.13%     95.53% |          27      4.47%    100.00% (Unspecified)
board.cache_hierarchy.ruby_system.L2Cache_Controller.MT.L1_GETS::total          604                       (Unspecified)
board.cache_hierarchy.ruby_system.L2Cache_Controller.MT.L1_GETX |       32691     99.47%     99.47% |           3      0.01%     99.48% |           0      0.00%     99.48% |           0      0.00%     99.48% |          17      0.05%     99.53% |          26      0.08%     99.61% |          20      0.06%     99.67% |          26      0.08%     99.75% |          26      0.08%     99.83% |          10      0.03%     99.86% |          12      0.04%     99.90% |          10      0.03%     99.93% |          13      0.04%     99.97% |          10      0.03%    100.00% |           0      0.00%    100.00% |           0      0.00%    100.00% (Unspecified)
board.cache_hierarchy.ruby_system.L2Cache_Controller.MT.L1_GETX::total        32864                       (Unspecified)
board.cache_hierarchy.ruby_system.L2Cache_Controller.MT.L1_PUTX |           8      2.23%      2.23% |          19      5.31%      7.54% |          15      4.19%     11.73% |          31      8.66%     20.39% |          46     12.85%     33.24% |          31      8.66%     41.90% |          30      8.38%     50.28% |          15      4.19%     54.47% |          15      4.19%     58.66% |          15      4.19%     62.85% |          31      8.66%     71.51% |          11      3.07%     74.58% |          29      8.10%     82.68% |          39     10.89%     93.58% |          15      4.19%     97.77% |           8      2.23%    100.00% (Unspecified)
board.cache_hierarchy.ruby_system.L2Cache_Controller.MT.L1_PUTX::total          358                       (Unspecified)
board.cache_hierarchy.ruby_system.L2Cache_Controller.ISS.Mem_Data |           0      0.00%      0.00% |           2      2.70%      2.70% |           0      0.00%      2.70% |           0      0.00%      2.70% |          16     21.62%     24.32% |           1      1.35%     25.68% |           2      2.70%     28.38% |           0      0.00%     28.38% |           0      0.00%     28.38% |          18     24.32%     52.70% |           2      2.70%     55.41% |           1      1.35%     56.76% |           1      1.35%     58.11% |           0      0.00%     58.11% |          14     18.92%     77.03% |          17     22.97%    100.00% (Unspecified)
board.cache_hierarchy.ruby_system.L2Cache_Controller.ISS.Mem_Data::total           74                       (Unspecified)
board.cache_hierarchy.ruby_system.L2Cache_Controller.IS.L1_GET_INSTR |           0      0.00%      0.00% |           0      0.00%      0.00% |           1    100.00%    100.00% |           0      0.00%    100.00% |           0      0.00%    100.00% |           0      0.00%    100.00% |           0      0.00%    100.00% |           0      0.00%    100.00% |           0      0.00%    100.00% |           0      0.00%    100.00% |           0      0.00%    100.00% |           0      0.00%    100.00% |           0      0.00%    100.00% |           0      0.00%    100.00% |           0      0.00%    100.00% |           0      0.00%    100.00% (Unspecified)
board.cache_hierarchy.ruby_system.L2Cache_Controller.IS.L1_GET_INSTR::total            1                       (Unspecified)
board.cache_hierarchy.ruby_system.L2Cache_Controller.IS.Mem_Data |          25      6.54%      6.54% |          25      6.54%     13.09% |          26      6.81%     19.90% |          28      7.33%     27.23% |          26      6.81%     34.03% |          26      6.81%     40.84% |          19      4.97%     45.81% |          18      4.71%     50.52% |          20      5.24%     55.76% |          26      6.81%     62.57% |          25      6.54%     69.11% |          22      5.76%     74.87% |          27      7.07%     81.94% |          26      6.81%     88.74% |          21      5.50%     94.24% |          22      5.76%    100.00% (Unspecified)
board.cache_hierarchy.ruby_system.L2Cache_Controller.IS.Mem_Data::total          382                       (Unspecified)
board.cache_hierarchy.ruby_system.L2Cache_Controller.IM.Mem_Data |          40      5.12%      5.12% |          51      6.53%     11.65% |          57      7.30%     18.95% |          57      7.30%     26.25% |          57      7.30%     33.55% |          74      9.48%     43.02% |          57      7.30%     50.32% |          57      7.30%     57.62% |          57      7.30%     64.92% |          40      5.12%     70.04% |          40      5.12%     75.16% |          25      3.20%     78.36% |          42      5.38%     83.74% |          57      7.30%     91.04% |          36      4.61%     95.65% |          34      4.35%    100.00% (Unspecified)
board.cache_hierarchy.ruby_system.L2Cache_Controller.IM.Mem_Data::total          781                       (Unspecified)
board.cache_hierarchy.ruby_system.L2Cache_Controller.SS_MB.L1_GETS |           0      0.00%      0.00% |           0      0.00%      0.00% |           0      0.00%      0.00% |           0      0.00%      0.00% |           0      0.00%      0.00% |           0      0.00%      0.00% |           0      0.00%      0.00% |           0      0.00%      0.00% |           0      0.00%      0.00% |           0      0.00%      0.00% |           2    100.00%    100.00% |           0      0.00%    100.00% |           0      0.00%    100.00% |           0      0.00%    100.00% |           0      0.00%    100.00% |           0      0.00%    100.00% (Unspecified)
board.cache_hierarchy.ruby_system.L2Cache_Controller.SS_MB.L1_GETS::total            2                       (Unspecified)
board.cache_hierarchy.ruby_system.L2Cache_Controller.SS_MB.Exclusive_Unblock |           1      0.44%      0.44% |          65     28.76%     29.20% |          25     11.06%     40.27% |          12      5.31%     45.58% |          13      5.75%     51.33% |          33     14.60%     65.93% |           6      2.65%     68.58% |           5      2.21%     70.80% |           2      0.88%     71.68% |           2      0.88%     72.57% |          29     12.83%     85.40% |           0      0.00%     85.40% |          12      5.31%     90.71% |           3      1.33%     92.04% |          17      7.52%     99.56% |           1      0.44%    100.00% (Unspecified)
board.cache_hierarchy.ruby_system.L2Cache_Controller.SS_MB.Exclusive_Unblock::total          226                       (Unspecified)
board.cache_hierarchy.ruby_system.L2Cache_Controller.MT_MB.L1_GETS |           0      0.00%      0.00% |           0      0.00%      0.00% |           0      0.00%      0.00% |           0      0.00%      0.00% |           0      0.00%      0.00% |           0      0.00%      0.00% |           0      0.00%      0.00% |           0      0.00%      0.00% |           0      0.00%      0.00% |           0      0.00%      0.00% |           1    100.00%    100.00% |           0      0.00%    100.00% |           0      0.00%    100.00% |           0      0.00%    100.00% |           0      0.00%    100.00% |           0      0.00%    100.00% (Unspecified)
board.cache_hierarchy.ruby_system.L2Cache_Controller.MT_MB.L1_GETS::total            1                       (Unspecified)
board.cache_hierarchy.ruby_system.L2Cache_Controller.MT_MB.L1_GETX |      461710    100.00%    100.00% |           0      0.00%    100.00% |           0      0.00%    100.00% |           0      0.00%    100.00% |           0      0.00%    100.00% |           0      0.00%    100.00% |           0      0.00%    100.00% |           0      0.00%    100.00% |           0      0.00%    100.00% |           0      0.00%    100.00% |           0      0.00%    100.00% |           0      0.00%    100.00% |           0      0.00%    100.00% |           0      0.00%    100.00% |           0      0.00%    100.00% |           0      0.00%    100.00% (Unspecified)
board.cache_hierarchy.ruby_system.L2Cache_Controller.MT_MB.L1_GETX::total       461710                       (Unspecified)
board.cache_hierarchy.ruby_system.L2Cache_Controller.MT_MB.Exclusive_Unblock |       32842     92.14%     92.14% |         171      0.48%     92.62% |         174      0.49%     93.11% |         190      0.53%     93.64% |         230      0.65%     94.29% |         224      0.63%     94.91% |         201      0.56%     95.48% |         201      0.56%     96.04% |         201      0.56%     96.61% |         184      0.52%     97.12% |         173      0.49%     97.61% |         149      0.42%     98.02% |         188      0.53%     98.55% |         189      0.53%     99.08% |         167      0.47%     99.55% |         160      0.45%    100.00% (Unspecified)
board.cache_hierarchy.ruby_system.L2Cache_Controller.MT_MB.Exclusive_Unblock::total        35644                       (Unspecified)
board.cache_hierarchy.ruby_system.L2Cache_Controller.MT_IIB.L1_GETS |           0      0.00%      0.00% |           0      0.00%      0.00% |           0      0.00%      0.00% |           0      0.00%      0.00% |           0      0.00%      0.00% |           0      0.00%      0.00% |           0      0.00%      0.00% |           0      0.00%      0.00% |           0      0.00%      0.00% |           0      0.00%      0.00% |           2    100.00%    100.00% |           0      0.00%    100.00% |           0      0.00%    100.00% |           0      0.00%    100.00% |           0      0.00%    100.00% |           0      0.00%    100.00% (Unspecified)
board.cache_hierarchy.ruby_system.L2Cache_Controller.MT_IIB.L1_GETS::total            2                       (Unspecified)
board.cache_hierarchy.ruby_system.L2Cache_Controller.MT_IIB.WB_Data |          22      4.21%      4.21% |          70     13.41%     17.62% |          58     11.11%     28.74% |          28      5.36%     34.10% |          28      5.36%     39.46% |          59     11.30%     50.77% |          21      4.02%     54.79% |          20      3.83%     58.62% |          19      3.64%     62.26% |          38      7.28%     69.54% |          36      6.90%     76.44% |          19      3.64%     80.08% |          27      5.17%     85.25% |          19      3.64%     88.89% |          34      6.51%     95.40% |          24      4.60%    100.00% (Unspecified)
board.cache_hierarchy.ruby_system.L2Cache_Controller.MT_IIB.WB_Data::total          522                       (Unspecified)
board.cache_hierarchy.ruby_system.L2Cache_Controller.MT_IIB.WB_Data_clean |          12     44.44%     44.44% |           0      0.00%     44.44% |           1      3.70%     48.15% |           2      7.41%     55.56% |           1      3.70%     59.26% |           1      3.70%     62.96% |           1      3.70%     66.67% |           0      0.00%     66.67% |           0      0.00%     66.67% |           1      3.70%     70.37% |           2      7.41%     77.78% |           0      0.00%     77.78% |           1      3.70%     81.48% |           1      3.70%     85.19% |           2      7.41%     92.59% |           2      7.41%    100.00% (Unspecified)
board.cache_hierarchy.ruby_system.L2Cache_Controller.MT_IIB.WB_Data_clean::total           27                       (Unspecified)
board.cache_hierarchy.ruby_system.L2Cache_Controller.MT_IIB.Unblock |           1      1.82%      1.82% |          26     47.27%     49.09% |           0      0.00%     49.09% |          15     27.27%     76.36% |           1      1.82%     78.18% |           0      0.00%     78.18% |           0      0.00%     78.18% |           1      1.82%     80.00% |           0      0.00%     80.00% |           0      0.00%     80.00% |           9     16.36%     96.36% |           0      0.00%     96.36% |           0      0.00%     96.36% |           0      0.00%     96.36% |           1      1.82%     98.18% |           1      1.82%    100.00% (Unspecified)
board.cache_hierarchy.ruby_system.L2Cache_Controller.MT_IIB.Unblock::total           55                       (Unspecified)
board.cache_hierarchy.ruby_system.L2Cache_Controller.MT_IB.WB_Data |           1      2.56%      2.56% |          26     66.67%     69.23% |           0      0.00%     69.23% |           0      0.00%     69.23% |           1      2.56%     71.79% |           0      0.00%     71.79% |           0      0.00%     71.79% |           1      2.56%     74.36% |           0      0.00%     74.36% |           0      0.00%     74.36% |           9     23.08%     97.44% |           0      0.00%     97.44% |           0      0.00%     97.44% |           0      0.00%     97.44% |           0      0.00%     97.44% |           1      2.56%    100.00% (Unspecified)
board.cache_hierarchy.ruby_system.L2Cache_Controller.MT_IB.WB_Data::total           39                       (Unspecified)
board.cache_hierarchy.ruby_system.L2Cache_Controller.MT_IB.WB_Data_clean |           0      0.00%      0.00% |           0      0.00%      0.00% |           0      0.00%      0.00% |          15     93.75%     93.75% |           0      0.00%     93.75% |           0      0.00%     93.75% |           0      0.00%     93.75% |           0      0.00%     93.75% |           0      0.00%     93.75% |           0      0.00%     93.75% |           0      0.00%     93.75% |           0      0.00%     93.75% |           0      0.00%     93.75% |           0      0.00%     93.75% |           1      6.25%    100.00% |           0      0.00%    100.00% (Unspecified)
board.cache_hierarchy.ruby_system.L2Cache_Controller.MT_IB.WB_Data_clean::total           16                       (Unspecified)
board.cache_hierarchy.ruby_system.L2Cache_Controller.MT_SB.L1_GETS |           0      0.00%      0.00% |           1    100.00%    100.00% |           0      0.00%    100.00% |           0      0.00%    100.00% |           0      0.00%    100.00% |           0      0.00%    100.00% |           0      0.00%    100.00% |           0      0.00%    100.00% |           0      0.00%    100.00% |           0      0.00%    100.00% |           0      0.00%    100.00% |           0      0.00%    100.00% |           0      0.00%    100.00% |           0      0.00%    100.00% |           0      0.00%    100.00% |           0      0.00%    100.00% (Unspecified)
board.cache_hierarchy.ruby_system.L2Cache_Controller.MT_SB.L1_GETS::total            1                       (Unspecified)
board.cache_hierarchy.ruby_system.L2Cache_Controller.MT_SB.L1_UPGRADE |           0      0.00%      0.00% |           0      0.00%      0.00% |           0      0.00%      0.00% |           0      0.00%      0.00% |           0      0.00%      0.00% |           0      0.00%      0.00% |           0      0.00%      0.00% |           0      0.00%      0.00% |           0      0.00%      0.00% |           0      0.00%      0.00% |           1    100.00%    100.00% |           0      0.00%    100.00% |           0      0.00%    100.00% |           0      0.00%    100.00% |           0      0.00%    100.00% |           0      0.00%    100.00% (Unspecified)
board.cache_hierarchy.ruby_system.L2Cache_Controller.MT_SB.L1_UPGRADE::total            1                       (Unspecified)
board.cache_hierarchy.ruby_system.L2Cache_Controller.MT_SB.Unblock |          34      6.19%      6.19% |          70     12.75%     18.94% |          59     10.75%     29.69% |          30      5.46%     35.15% |          29      5.28%     40.44% |          60     10.93%     51.37% |          22      4.01%     55.37% |          20      3.64%     59.02% |          19      3.46%     62.48% |          39      7.10%     69.58% |          38      6.92%     76.50% |          19      3.46%     79.96% |          28      5.10%     85.06% |          20      3.64%     88.71% |          36      6.56%     95.26% |          26      4.74%    100.00% (Unspecified)
board.cache_hierarchy.ruby_system.L2Cache_Controller.MT_SB.Unblock::total          549                       (Unspecified)
board.cache_hierarchy.ruby_system.RequestType.LD.latency_hist_seqr::bucket_size          256                       (Unspecified)
board.cache_hierarchy.ruby_system.RequestType.LD.latency_hist_seqr::max_bucket         2559                       (Unspecified)
board.cache_hierarchy.ruby_system.RequestType.LD.latency_hist_seqr::samples       317395                       (Unspecified)
board.cache_hierarchy.ruby_system.RequestType.LD.latency_hist_seqr::mean     1.530418                       (Unspecified)
board.cache_hierarchy.ruby_system.RequestType.LD.latency_hist_seqr::gmean     1.036050                       (Unspecified)
board.cache_hierarchy.ruby_system.RequestType.LD.latency_hist_seqr::stdev     7.059559                       (Unspecified)
board.cache_hierarchy.ruby_system.RequestType.LD.latency_hist_seqr |      317385    100.00%    100.00% |           7      0.00%    100.00% |           0      0.00%    100.00% |           1      0.00%    100.00% |           1      0.00%    100.00% |           1      0.00%    100.00% |           0      0.00%    100.00% |           0      0.00%    100.00% |           0      0.00%    100.00% |           0      0.00%    100.00% (Unspecified)
board.cache_hierarchy.ruby_system.RequestType.LD.latency_hist_seqr::total       317395                       (Unspecified)
board.cache_hierarchy.ruby_system.RequestType.LD.hit_latency_hist_seqr::bucket_size            1                       (Unspecified)
board.cache_hierarchy.ruby_system.RequestType.LD.hit_latency_hist_seqr::max_bucket            9                       (Unspecified)
board.cache_hierarchy.ruby_system.RequestType.LD.hit_latency_hist_seqr::samples       314601                       (Unspecified)
board.cache_hierarchy.ruby_system.RequestType.LD.hit_latency_hist_seqr::mean     1.000016                       (Unspecified)
board.cache_hierarchy.ruby_system.RequestType.LD.hit_latency_hist_seqr::gmean     1.000011                       (Unspecified)
[...]
board.processor.cores9.core.decode.unblockCycles        12516                       # Number of cycles decode is unblocking (Cycle)
board.processor.cores9.core.decode.squashCycles         2312                       # Number of cycles decode is squashing (Cycle)
board.processor.cores9.core.decode.branchResolved        12705                       # Number of times decode resolved a branch (Count)
board.processor.cores9.core.decode.branchMispred          112                       # Number of times decode detected a branch misprediction (Count)
board.processor.cores9.core.decode.decodedInsts       342263                       # Number of instructions handled by decode (Count)
board.processor.cores9.core.decode.squashedInsts          571                       # Number of squashed instructions handled by decode (Count)
board.processor.cores9.core.executeStats0.numInsts       217305                       # Number of executed instructions (Count)
board.processor.cores9.core.executeStats0.numNop            0                       # Number of nop insts executed (Count)
board.processor.cores9.core.executeStats0.numBranches        12967                       # Number of branches executed (Count)
board.processor.cores9.core.executeStats0.numLoadInsts        52032                       # Number of load instructions executed (Count)
board.processor.cores9.core.executeStats0.numStoreInsts        16943                       # Number of stores executed (Count)
board.processor.cores9.core.executeStats0.instRate     0.083578                       # Inst execution rate ((Count/Cycle))
board.processor.cores9.core.executeStats0.numCCRegReads        33112                       # Number of times the CC registers were read (Count)
board.processor.cores9.core.executeStats0.numCCRegWrites        46434                       # Number of times the CC registers were written (Count)
board.processor.cores9.core.executeStats0.numFpRegReads           20                       # Number of times the floating registers were read (Count)
board.processor.cores9.core.executeStats0.numFpRegWrites           10                       # Number of times the floating registers were written (Count)
board.processor.cores9.core.executeStats0.numIntRegReads       267009                       # Number of times the integer registers were read (Count)
board.processor.cores9.core.executeStats0.numIntRegWrites       174314                       # Number of times the integer registers were written (Count)
board.processor.cores9.core.executeStats0.numMemRefs        68975                       # Number of memory refs (Count)
board.processor.cores9.core.executeStats0.numMiscRegReads        98991                       # Number of times the Misc registers were read (Count)
board.processor.cores9.core.executeStats0.numMiscRegWrites            1                       # Number of times the Misc registers were written (Count)
board.processor.cores9.core.executeStats0.numVecAluAccesses            0                       # Number of vector alu accesses (Count)
board.processor.cores9.core.executeStats0.numDiscardedOps            0                       # Number of ops (including micro ops) which were discarded before commit (Count)
board.processor.cores9.core.fetch.predictedBranches        18992                       # Number of branches that fetch has predicted taken (Count)
board.processor.cores9.core.fetch.cycles      2558197                       # Number of cycles fetch has run and was not squashing or blocked (Cycle)
board.processor.cores9.core.fetch.squashCycles         4846                       # Number of cycles fetch has spent squashing (Cycle)
board.processor.cores9.core.fetch.miscStallCycles          158                       # Number of cycles fetch has spent waiting on interrupts, or bad addresses, or out of MSHRs (Cycle)
board.processor.cores9.core.fetch.pendingTrapStallCycles          969                       # Number of stall cycles due to pending traps (Cycle)
board.processor.cores9.core.fetch.cacheLines        29499                       # Number of cache lines fetched (Count)
board.processor.cores9.core.fetch.icacheSquashes           83                       # Number of outstanding Icache misses that were squashed (Count)
board.processor.cores9.core.fetch.nisnDist::samples      2597397                       # Number of instructions fetched each cycle (Total) (Count)
board.processor.cores9.core.fetch.nisnDist::mean     0.154487                       # Number of instructions fetched each cycle (Total) (Count)
board.processor.cores9.core.fetch.nisnDist::stdev     1.039209                       # Number of instructions fetched each cycle (Total) (Count)
board.processor.cores9.core.fetch.nisnDist::underflows            0      0.00%      0.00% # Number of instructions fetched each cycle (Total) (Count)
board.processor.cores9.core.fetch.nisnDist::0      2532249     97.49%     97.49% # Number of instructions fetched each cycle (Total) (Count)
board.processor.cores9.core.fetch.nisnDist::1         8375      0.32%     97.81% # Number of instructions fetched each cycle (Total) (Count)
board.processor.cores9.core.fetch.nisnDist::2           33      0.00%     97.82% # Number of instructions fetched each cycle (Total) (Count)
board.processor.cores9.core.fetch.nisnDist::3         4190      0.16%     97.98% # Number of instructions fetched each cycle (Total) (Count)
board.processor.cores9.core.fetch.nisnDist::4         2118      0.08%     98.06% # Number of instructions fetched each cycle (Total) (Count)
board.processor.cores9.core.fetch.nisnDist::5         2331      0.09%     98.15% # Number of instructions fetched each cycle (Total) (Count)
board.processor.cores9.core.fetch.nisnDist::6        10224      0.39%     98.54% # Number of instructions fetched each cycle (Total) (Count)
board.processor.cores9.core.fetch.nisnDist::7         4234      0.16%     98.70% # Number of instructions fetched each cycle (Total) (Count)
board.processor.cores9.core.fetch.nisnDist::8        33643      1.30%    100.00% # Number of instructions fetched each cycle (Total) (Count)
board.processor.cores9.core.fetch.nisnDist::overflows            0      0.00%    100.00% # Number of instructions fetched each cycle (Total) (Count)
board.processor.cores9.core.fetch.nisnDist::min_value            0                       # Number of instructions fetched each cycle (Total) (Count)
board.processor.cores9.core.fetch.nisnDist::max_value            8                       # Number of instructions fetched each cycle (Total) (Count)
board.processor.cores9.core.fetch.nisnDist::total      2597397                       # Number of instructions fetched each cycle (Total) (Count)
board.processor.cores9.core.fetchStats0.numInsts       228035                       # Number of instructions fetched (thread level) (Count)
board.processor.cores9.core.fetchStats0.numOps            0                       # Number of ops (including micro ops) fetched (thread level) (Count)
board.processor.cores9.core.fetchStats0.fetchRate     0.087705                       # Number of inst fetches per cycle ((Count/Cycle))
board.processor.cores9.core.fetchStats0.numBranches        25734                       # Number of branches fetched (Count)
board.processor.cores9.core.fetchStats0.branchRate     0.009898                       # Number of branch fetches per cycle (Ratio)
board.processor.cores9.core.fetchStats0.icacheStallCycles        35650                       # ICache total stall cycles (Cycle)
board.processor.cores9.core.fetchStats0.numFetchSuspends            0                       # Number of times Execute suspended instruction fetching (Count)
board.processor.cores9.core.iew.idleCycles            0                       # Number of cycles IEW is idle (Cycle)
board.processor.cores9.core.iew.squashCycles         2312                       # Number of cycles IEW is squashing (Cycle)
board.processor.cores9.core.iew.blockCycles      2471414                       # Number of cycles IEW is blocking (Cycle)
board.processor.cores9.core.iew.unblockCycles         2262                       # Number of cycles IEW is unblocking (Cycle)
board.processor.cores9.core.iew.dispatchedInsts       308892                       # Number of instructions dispatched to IQ (Count)
board.processor.cores9.core.iew.dispSquashedInsts            2                       # Number of squashed instructions skipped by dispatch (Count)
board.processor.cores9.core.iew.dispLoadInsts        80987                       # Number of dispatched load instructions (Count)
board.processor.cores9.core.iew.dispStoreInsts        25225                       # Number of dispatched store instructions (Count)
board.processor.cores9.core.iew.dispNonSpecInsts         4122                       # Number of dispatched non-speculative instructions (Count)
board.processor.cores9.core.iew.iqFullEvents           34                       # Number of times the IQ has become full, causing a stall (Count)
board.processor.cores9.core.iew.lsqFullEvents           55                       # Number of times the LSQ has become full, causing a stall (Count)
board.processor.cores9.core.iew.memOrderViolationEvents         2054                       # Number of memory order violations (Count)
board.processor.cores9.core.iew.predictedTakenIncorrect            7                       # Number of branches that were predicted taken incorrectly (Count)
board.processor.cores9.core.iew.predictedNotTakenIncorrect          256                       # Number of branches that were predicted not taken incorrectly (Count)
board.processor.cores9.core.iew.branchMispredicts          263                       # Number of branch mispredicts detected at execute (Count)
board.processor.cores9.core.iew.instsToCommit       217265                       # Cumulative count of insts sent to commit (Count)
board.processor.cores9.core.iew.writebackCount       217006                       # Cumulative count of insts written-back (Count)
board.processor.cores9.core.iew.producerInst       151357                       # Number of instructions producing a value (Count)
board.processor.cores9.core.iew.consumerInst       245771                       # Number of instructions consuming a value (Count)
board.processor.cores9.core.iew.wbRate       0.083463                       # Insts written-back per cycle ((Count/Cycle))
board.processor.cores9.core.iew.wbFanout     0.615846                       # Average fanout of values written-back ((Count/Count))
board.processor.cores9.core.interrupts.clk_domain.clock         5328                       # Clock period in ticks (Tick)
board.processor.cores9.core.lsq0.forwLoads         4280                       # Number of loads that had data forwarded from stores (Count)
board.processor.cores9.core.lsq0.squashedLoads        49696                       # Number of loads squashed (Count)
board.processor.cores9.core.lsq0.ignoredResponses            1                       # Number of memory responses ignored because the instruction is squashed (Count)
board.processor.cores9.core.lsq0.memOrderViolation         2054                       # Number of memory ordering violations (Count)
board.processor.cores9.core.lsq0.squashedStores        12496                       # Number of stores squashed (Count)
board.processor.cores9.core.lsq0.rescheduledLoads            0                       # Number of loads that were rescheduled (Count)
board.processor.cores9.core.lsq0.blockedByCache            0                       # Number of times an access to memory failed due to the cache being blocked (Count)
board.processor.cores9.core.lsq0.loadToUse::samples        31291                       # Distribution of cycle latency between the first time a load is issued and its completion (Unspecified)
board.processor.cores9.core.lsq0.loadToUse::mean    80.750471                       # Distribution of cycle latency between the first time a load is issued and its completion (Unspecified)
board.processor.cores9.core.lsq0.loadToUse::stdev   294.462326                       # Distribution of cycle latency between the first time a load is issued and its completion (Unspecified)
board.processor.cores9.core.lsq0.loadToUse::0-9        29075     92.92%     92.92% # Distribution of cycle latency between the first time a load is issued and its completion (Unspecified)
board.processor.cores9.core.lsq0.loadToUse::10-19            8      0.03%     92.94% # Distribution of cycle latency between the first time a load is issued and its completion (Unspecified)
board.processor.cores9.core.lsq0.loadToUse::20-29            2      0.01%     92.95% # Distribution of cycle latency between the first time a load is issued and its completion (Unspecified)
board.processor.cores9.core.lsq0.loadToUse::30-39            1      0.00%     92.95% # Distribution of cycle latency between the first time a load is issued and its completion (Unspecified)
board.processor.cores9.core.lsq0.loadToUse::50-59          126      0.40%     93.36% # Distribution of cycle latency between the first time a load is issued and its completion (Unspecified)
board.processor.cores9.core.lsq0.loadToUse::60-69           16      0.05%     93.41% # Distribution of cycle latency between the first time a load is issued and its completion (Unspecified)
board.processor.cores9.core.lsq0.loadToUse::70-79            1      0.00%     93.41% # Distribution of cycle latency between the first time a load is issued and its completion (Unspecified)
board.processor.cores9.core.lsq0.loadToUse::80-89           11      0.04%     93.45% # Distribution of cycle latency between the first time a load is issued and its completion (Unspecified)
board.processor.cores9.core.lsq0.loadToUse::150-159            1      0.00%     93.45% # Distribution of cycle latency between the first time a load is issued and its completion (Unspecified)
board.processor.cores9.core.lsq0.loadToUse::200-209            1      0.00%     93.45% # Distribution of cycle latency between the first time a load is issued and its completion (Unspecified)
board.processor.cores9.core.lsq0.loadToUse::overflows         2049      6.55%    100.00% # Distribution of cycle latency between the first time a load is issued and its completion (Unspecified)
board.processor.cores9.core.lsq0.loadToUse::min_value            2                       # Distribution of cycle latency between the first time a load is issued and its completion (Unspecified)
board.processor.cores9.core.lsq0.loadToUse::max_value         1228                       # Distribution of cycle latency between the first time a load is issued and its completion (Unspecified)
board.processor.cores9.core.lsq0.loadToUse::total        31291                       # Distribution of cycle latency between the first time a load is issued and its completion (Unspecified)
board.processor.cores9.core.mmu.dtb.rdAccesses        52032                       # TLB accesses on read requests (Count)
board.processor.cores9.core.mmu.dtb.wrAccesses        16943                       # TLB accesses on write requests (Count)
board.processor.cores9.core.mmu.dtb.rdMisses           66                       # TLB misses on read requests (Count)
board.processor.cores9.core.mmu.dtb.wrMisses           12                       # TLB misses on write requests (Count)
board.processor.cores9.core.mmu.dtb.walker.power_state.pwrStateResidencyTicks::UNDEFINED   1179180639                       # Cumulative time (in ticks) in various power states (Tick)
board.processor.cores9.core.mmu.itb.rdAccesses            0                       # TLB accesses on read requests (Count)
board.processor.cores9.core.mmu.itb.wrAccesses        29660                       # TLB accesses on write requests (Count)
board.processor.cores9.core.mmu.itb.rdMisses            0                       # TLB misses on read requests (Count)
board.processor.cores9.core.mmu.itb.wrMisses          206                       # TLB misses on write requests (Count)
board.processor.cores9.core.mmu.itb.walker.power_state.pwrStateResidencyTicks::UNDEFINED   1179180639                       # Cumulative time (in ticks) in various power states (Tick)
board.processor.cores9.core.power_state.pwrStateResidencyTicks::ON   1179180639                       # Cumulative time (in ticks) in various power states (Tick)
board.processor.cores9.core.rename.squashCycles         2312                       # Number of cycles rename is squashing (Cycle)
board.processor.cores9.core.rename.idleCycles        26095                       # Number of cycles rename is idle (Cycle)
board.processor.cores9.core.rename.blockCycles      2496689                       # Number of cycles rename is blocking (Cycle)
board.processor.cores9.core.rename.serializeStallCycles            0                       # count of cycles rename stalled for serializing inst (Cycle)
board.processor.cores9.core.rename.runCycles        42316                       # Number of cycles rename is running (Cycle)
board.processor.cores9.core.rename.unblockCycles        29985                       # Number of cycles rename is unblocking (Cycle)
board.processor.cores9.core.rename.renamedInsts       325630                       # Number of instructions processed by rename (Count)
board.processor.cores9.core.rename.ROBFullEvents            8                       # Number of times rename has blocked due to ROB full (Count)
board.processor.cores9.core.rename.IQFullEvents        29250                       # Number of times rename has blocked due to IQ full (Count)
board.processor.cores9.core.rename.LQFullEvents           94                       # Number of times rename has blocked due to LQ full (Count)
board.processor.cores9.core.rename.SQFullEvents          626                       # Number of times rename has blocked due to SQ full (Count)
board.processor.cores9.core.rename.renamedOperands       468074                       # Number of destination operands rename has renamed (Count)
board.processor.cores9.core.rename.lookups       961780                       # Number of register rename lookups that rename has made (Count)
board.processor.cores9.core.rename.intLookups       429694                       # Number of integer rename lookups (Count)
board.processor.cores9.core.rename.fpLookups           20                       # Number of floating rename lookups (Count)
board.processor.cores9.core.rename.committedMaps       179978                       # Number of HB maps that are committed (Count)
board.processor.cores9.core.rename.undoneMaps       288096                       # Number of HB maps that are undone due to squashing (Count)
board.processor.cores9.core.rename.serializing            0                       # count of serializing insts renamed (Count)
board.processor.cores9.core.rename.tempSerializing            0                       # count of temporary serializing insts renamed (Count)
board.processor.cores9.core.rename.skidInsts        50494                       # count of insts added to the skid buffer (Count)
board.processor.cores9.core.rob.reads         2878569                       # The number of ROB reads (Count)
board.processor.cores9.core.rob.writes         640540                       # The number of ROB writes (Count)
board.processor.cores9.core.thread_0.numInsts        71588                       # Number of Instructions committed (Count)
board.processor.cores9.core.thread_0.numOps       127035                       # Number of Ops committed (Count)
board.processor.cores9.core.thread_0.numMemRefs            0                       # Number of Memory References (Count)
board.workload.inst.arm                             0                       # number of arm instructions executed (Count)
board.workload.inst.quiesce                         0                       # number of quiesce instructions executed (Count)

---------- End Simulation Statistics   ----------
