
---------- Begin Simulation Statistics ----------
simSeconds                                   0.000267                       # Number of seconds simulated (Second)
simTicks                                    266774292                       # Number of ticks simulated (Tick)
finalTick                                   491906934                       # Number of ticks from beginning of simulation (restored from checkpoints and never reset) (Tick)
simFreq                                  1000000000000                       # The number of ticks per simulated second ((Tick/Second))
hostSeconds                                     33.71                       # Real time elapsed on the host (Second)
hostTickRate                                  7914021                       # The number of ticks simulated per host second (ticks/s) ((Tick/Second))
hostMemory                                    1757568                       # Number of bytes of host memory used (Byte)
simInsts                                      1665212                       # Number of instructions simulated (Count)
simOps                                        2595378                       # Number of ops (including micro ops) simulated (Count)
hostInstRate                                    49399                       # Simulator instruction rate (inst/s) ((Count/Second))
hostOpRate                                      76993                       # Simulator op (including micro ops) rate (op/s) ((Count/Second))
board.cache_hierarchy.ruby_system.delayHistogram::bucket_size          128                       # delay histogram for all message (Unspecified)
board.cache_hierarchy.ruby_system.delayHistogram::max_bucket         1279                       # delay histogram for all message (Unspecified)
board.cache_hierarchy.ruby_system.delayHistogram::samples       219468                       # delay histogram for all message (Unspecified)
board.cache_hierarchy.ruby_system.delayHistogram::mean    97.784957                       # delay histogram for all message (Unspecified)
board.cache_hierarchy.ruby_system.delayHistogram::stdev   292.209867                       # delay histogram for all message (Unspecified)
board.cache_hierarchy.ruby_system.delayHistogram |      196514     89.54%     89.54% |         603      0.27%     89.82% |         535      0.24%     90.06% |         736      0.34%     90.39% |         880      0.40%     90.80% |         110      0.05%     90.85% |         779      0.35%     91.20% |       13833      6.30%     97.50% |        5478      2.50%    100.00% |           0      0.00%    100.00% # delay histogram for all message (Unspecified)
board.cache_hierarchy.ruby_system.delayHistogram::total       219468                       # delay histogram for all message (Unspecified)
board.cache_hierarchy.ruby_system.m_outstandReqHistSeqr::bucket_size            2                       (Unspecified)
board.cache_hierarchy.ruby_system.m_outstandReqHistSeqr::max_bucket           19                       (Unspecified)
board.cache_hierarchy.ruby_system.m_outstandReqHistSeqr::samples      1036662                       (Unspecified)
board.cache_hierarchy.ruby_system.m_outstandReqHistSeqr::mean     1.328615                       (Unspecified)
board.cache_hierarchy.ruby_system.m_outstandReqHistSeqr::gmean     1.249115                       (Unspecified)
board.cache_hierarchy.ruby_system.m_outstandReqHistSeqr::stdev     0.529874                       (Unspecified)
board.cache_hierarchy.ruby_system.m_outstandReqHistSeqr |      711444     68.63%     68.63% |      322123     31.07%     99.70% |        2536      0.24%     99.95% |         272      0.03%     99.97% |         107      0.01%     99.98% |          80      0.01%     99.99% |          63      0.01%    100.00% |          34      0.00%    100.00% |           3      0.00%    100.00% |           0      0.00%    100.00% (Unspecified)
board.cache_hierarchy.ruby_system.m_outstandReqHistSeqr::total      1036662                       (Unspecified)
board.cache_hierarchy.ruby_system.m_latencyHistSeqr::bucket_size          128                       (Unspecified)
board.cache_hierarchy.ruby_system.m_latencyHistSeqr::max_bucket         1279                       (Unspecified)
board.cache_hierarchy.ruby_system.m_latencyHistSeqr::samples      1036974                       (Unspecified)
board.cache_hierarchy.ruby_system.m_latencyHistSeqr::mean     7.731304                       (Unspecified)
board.cache_hierarchy.ruby_system.m_latencyHistSeqr::gmean     1.309361                       (Unspecified)
board.cache_hierarchy.ruby_system.m_latencyHistSeqr::stdev    37.458967                       (Unspecified)
board.cache_hierarchy.ruby_system.m_latencyHistSeqr |     1013440     97.73%     97.73% |        4471      0.43%     98.16% |       19050      1.84%    100.00% |           0      0.00%    100.00% |           0      0.00%    100.00% |           0      0.00%    100.00% |           1      0.00%    100.00% |           0      0.00%    100.00% |           3      0.00%    100.00% |           9      0.00%    100.00% (Unspecified)
board.cache_hierarchy.ruby_system.m_latencyHistSeqr::total      1036974                       (Unspecified)
board.cache_hierarchy.ruby_system.m_hitLatencyHistSeqr::bucket_size          128                       (Unspecified)
board.cache_hierarchy.ruby_system.m_hitLatencyHistSeqr::max_bucket         1279                       (Unspecified)
board.cache_hierarchy.ruby_system.m_hitLatencyHistSeqr::samples       966526                       (Unspecified)
board.cache_hierarchy.ruby_system.m_hitLatencyHistSeqr::mean     1.002059                       (Unspecified)
board.cache_hierarchy.ruby_system.m_hitLatencyHistSeqr::gmean     1.000247                       (Unspecified)
board.cache_hierarchy.ruby_system.m_hitLatencyHistSeqr::stdev     1.275571                       (Unspecified)
board.cache_hierarchy.ruby_system.m_hitLatencyHistSeqr |      966524    100.00%    100.00% |           1      0.00%    100.00% |           0      0.00%    100.00% |           0      0.00%    100.00% |           0      0.00%    100.00% |           0      0.00%    100.00% |           0      0.00%    100.00% |           0      0.00%    100.00% |           0      0.00%    100.00% |           1      0.00%    100.00% (Unspecified)
board.cache_hierarchy.ruby_system.m_hitLatencyHistSeqr::total       966526                       (Unspecified)
board.cache_hierarchy.ruby_system.m_missLatencyHistSeqr::bucket_size          128                       (Unspecified)
board.cache_hierarchy.ruby_system.m_missLatencyHistSeqr::max_bucket         1279                       (Unspecified)
board.cache_hierarchy.ruby_system.m_missLatencyHistSeqr::samples        70448                       (Unspecified)
board.cache_hierarchy.ruby_system.m_missLatencyHistSeqr::mean   100.054579                       (Unspecified)
board.cache_hierarchy.ruby_system.m_missLatencyHistSeqr::gmean    52.675639                       (Unspecified)
board.cache_hierarchy.ruby_system.m_missLatencyHistSeqr::stdev   107.178736                       (Unspecified)
board.cache_hierarchy.ruby_system.m_missLatencyHistSeqr |       46916     66.60%     66.60% |        4470      6.35%     72.94% |       19050     27.04%     99.98% |           0      0.00%     99.98% |           0      0.00%     99.98% |           0      0.00%     99.98% |           1      0.00%     99.98% |           0      0.00%     99.98% |           3      0.00%     99.99% |           8      0.01%    100.00% (Unspecified)
board.cache_hierarchy.ruby_system.m_missLatencyHistSeqr::total        70448                       (Unspecified)
board.cache_hierarchy.ruby_system.delayVCHist.vnet_0::bucket_size          128                       # delay histogram for vnet_0 (Unspecified)
board.cache_hierarchy.ruby_system.delayVCHist.vnet_0::max_bucket         1279                       # delay histogram for vnet_0 (Unspecified)
board.cache_hierarchy.ruby_system.delayVCHist.vnet_0::samples       109260                       # delay histogram for vnet_0 (Unspecified)
board.cache_hierarchy.ruby_system.delayVCHist.vnet_0::mean   196.192687                       # delay histogram for vnet_0 (Unspecified)
board.cache_hierarchy.ruby_system.delayVCHist.vnet_0::stdev   390.163783                       # delay histogram for vnet_0 (Unspecified)
board.cache_hierarchy.ruby_system.delayVCHist.vnet_0 |       86306     78.99%     78.99% |         603      0.55%     79.54% |         535      0.49%     80.03% |         736      0.67%     80.71% |         880      0.81%     81.51% |         110      0.10%     81.61% |         779      0.71%     82.33% |       13833     12.66%     94.99% |        5478      5.01%    100.00% |           0      0.00%    100.00% # delay histogram for vnet_0 (Unspecified)
board.cache_hierarchy.ruby_system.delayVCHist.vnet_0::total       109260                       # delay histogram for vnet_0 (Unspecified)
board.cache_hierarchy.ruby_system.delayVCHist.vnet_1::bucket_size            8                       # delay histogram for vnet_1 (Unspecified)
board.cache_hierarchy.ruby_system.delayVCHist.vnet_1::max_bucket           79                       # delay histogram for vnet_1 (Unspecified)
board.cache_hierarchy.ruby_system.delayVCHist.vnet_1::samples        74754                       # delay histogram for vnet_1 (Unspecified)
board.cache_hierarchy.ruby_system.delayVCHist.vnet_1::mean     0.329721                       # delay histogram for vnet_1 (Unspecified)
board.cache_hierarchy.ruby_system.delayVCHist.vnet_1::stdev     1.719548                       # delay histogram for vnet_1 (Unspecified)
board.cache_hierarchy.ruby_system.delayVCHist.vnet_1 |       72388     96.83%     96.83% |        2241      3.00%     99.83% |          88      0.12%     99.95% |          23      0.03%     99.98% |          13      0.02%    100.00% |           1      0.00%    100.00% |           0      0.00%    100.00% |           0      0.00%    100.00% |           0      0.00%    100.00% |           0      0.00%    100.00% # delay histogram for vnet_1 (Unspecified)
board.cache_hierarchy.ruby_system.delayVCHist.vnet_1::total        74754                       # delay histogram for vnet_1 (Unspecified)
board.cache_hierarchy.ruby_system.delayVCHist.vnet_2::bucket_size            1                       # delay histogram for vnet_2 (Unspecified)
board.cache_hierarchy.ruby_system.delayVCHist.vnet_2::max_bucket            9                       # delay histogram for vnet_2 (Unspecified)
board.cache_hierarchy.ruby_system.delayVCHist.vnet_2::samples        35454                       # delay histogram for vnet_2 (Unspecified)
board.cache_hierarchy.ruby_system.delayVCHist.vnet_2::mean     0.000226                       # delay histogram for vnet_2 (Unspecified)
board.cache_hierarchy.ruby_system.delayVCHist.vnet_2::stdev     0.021243                       # delay histogram for vnet_2 (Unspecified)
board.cache_hierarchy.ruby_system.delayVCHist.vnet_2 |       35450     99.99%     99.99% |           0      0.00%     99.99% |           4      0.01%    100.00% |           0      0.00%    100.00% |           0      0.00%    100.00% |           0      0.00%    100.00% |           0      0.00%    100.00% |           0      0.00%    100.00% |           0      0.00%    100.00% |           0      0.00%    100.00% # delay histogram for vnet_2 (Unspecified)
board.cache_hierarchy.ruby_system.delayVCHist.vnet_2::total        35454                       # delay histogram for vnet_2 (Unspecified)
board.cache_hierarchy.ruby_system.Directory_Controller.Fetch         1101      0.00%      0.00% (Unspecified)
board.cache_hierarchy.ruby_system.Directory_Controller.Memory_Data         1101      0.00%      0.00% (Unspecified)
board.cache_hierarchy.ruby_system.Directory_Controller.I.Fetch         1101      0.00%      0.00% (Unspecified)
board.cache_hierarchy.ruby_system.Directory_Controller.IM.Memory_Data         1101      0.00%      0.00% (Unspecified)
board.cache_hierarchy.ruby_system.L1Cache_Controller.Load |       13405      4.72%      4.72% |       16912      5.96%     10.68% |       16889      5.95%     16.63% |       16890      5.95%     22.58% |       16890      5.95%     28.53% |       16910      5.96%     34.49% |       16889      5.95%     40.43% |       16913      5.96%     46.39% |       16894      5.95%     52.34% |       16922      5.96%     58.30% |       16894      5.95%     64.26% |       16919      5.96%     70.22% |       16898      5.95%     76.17% |       16952      5.97%     82.14% |       16907      5.96%     88.10% |       16900      5.95%     94.05% |       16893      5.95%    100.00% (Unspecified)
board.cache_hierarchy.ruby_system.L1Cache_Controller.Load::total       283877                       (Unspecified)
board.cache_hierarchy.ruby_system.L1Cache_Controller.Ifetch |       20691      4.20%      4.20% |       29408      5.97%     10.17% |       29467      5.98%     16.15% |       29467      5.98%     22.13% |       29469      5.98%     28.11% |       29493      5.99%     34.10% |       29477      5.98%     40.08% |       29501      5.99%     46.07% |       29480      5.98%     52.05% |       29544      6.00%     58.05% |       29487      5.98%     64.03% |       29491      5.99%     70.02% |       29474      5.98%     76.00% |       29559      6.00%     82.00% |       29601      6.01%     88.01% |       29598      6.01%     94.01% |       29490      5.99%    100.00% (Unspecified)
board.cache_hierarchy.ruby_system.L1Cache_Controller.Ifetch::total       492697                       (Unspecified)
board.cache_hierarchy.ruby_system.L1Cache_Controller.Store |       22828      8.77%      8.77% |       14793      5.68%     14.45% |       14793      5.68%     20.13% |       14793      5.68%     25.81% |       14793      5.68%     31.49% |       14793      5.68%     37.17% |       14793      5.68%     42.85% |       14793      5.68%     48.53% |       14793      5.68%     54.21% |       14796      5.68%     59.90% |       14793      5.68%     65.58% |       14793      5.68%     71.26% |       14793      5.68%     76.94% |       15086      5.79%     82.73% |       15085      5.79%     88.52% |       15088      5.79%     94.32% |       14793      5.68%    100.00% (Unspecified)
board.cache_hierarchy.ruby_system.L1Cache_Controller.Store::total       260399                       (Unspecified)
board.cache_hierarchy.ruby_system.L1Cache_Controller.Inv |          82     33.74%     33.74% |           8      3.29%     37.04% |           8      3.29%     40.33% |           9      3.70%     44.03% |           9      3.70%     47.74% |          10      4.12%     51.85% |           8      3.29%     55.14% |           9      3.70%     58.85% |           9      3.70%     62.55% |          12      4.94%     67.49% |          16      6.58%     74.07% |          10      4.12%     78.19% |           8      3.29%     81.48% |           9      3.70%     85.19% |          13      5.35%     90.53% |          13      5.35%     95.88% |          10      4.12%    100.00% (Unspecified)
board.cache_hierarchy.ruby_system.L1Cache_Controller.Inv::total          243                       (Unspecified)
board.cache_hierarchy.ruby_system.L1Cache_Controller.L1_Replacement |         859      3.21%      3.21% |        1609      6.02%      9.23% |        1609      6.02%     15.25% |        1610      6.02%     21.27% |        1612      6.03%     27.30% |        1615      6.04%     33.34% |        1612      6.03%     39.37% |        1615      6.04%     45.41% |        1613      6.03%     51.44% |        1615      6.04%     57.48% |        1611      6.03%     63.51% |        1612      6.03%     69.53% |        1611      6.03%     75.56% |        1641      6.14%     81.70% |        1641      6.14%     87.83% |        1642      6.14%     93.97% |        1611      6.03%    100.00% (Unspecified)
board.cache_hierarchy.ruby_system.L1Cache_Controller.L1_Replacement::total        26738                       (Unspecified)
board.cache_hierarchy.ruby_system.L1Cache_Controller.Fwd_GETX |          40      0.12%      0.12% |        2001      6.10%      6.22% |        2061      6.28%     12.50% |        2061      6.28%     18.78% |        2061      6.28%     25.06% |        2061      6.28%     31.34% |        2061      6.28%     37.62% |        2061      6.28%     43.91% |        2061      6.28%     50.19% |        2062      6.28%     56.47% |        2062      6.28%     62.75% |        2050      6.25%     69.00% |        2035      6.20%     75.20% |        1994      6.08%     81.28% |        2062      6.28%     87.56% |        2061      6.28%     93.84% |        2020      6.16%    100.00% (Unspecified)
board.cache_hierarchy.ruby_system.L1Cache_Controller.Fwd_GETX::total        32814                       (Unspecified)
board.cache_hierarchy.ruby_system.L1Cache_Controller.Fwd_GETS |         419     17.48%     17.48% |         714     29.79%     47.27% |          11      0.46%     47.73% |          11      0.46%     48.19% |          12      0.50%     48.69% |          11      0.46%     49.14% |          12      0.50%     49.65% |          11      0.46%     50.10% |          11      0.46%     50.56% |          13      0.54%     51.11% |          12      0.50%     51.61% |           8      0.33%     51.94% |           8      0.33%     52.27% |        1105     46.10%     98.37% |          16      0.67%     99.04% |          13      0.54%     99.58% |          10      0.42%    100.00% (Unspecified)
board.cache_hierarchy.ruby_system.L1Cache_Controller.Fwd_GETS::total         2397                       (Unspecified)
board.cache_hierarchy.ruby_system.L1Cache_Controller.Data_Exclusive |          76      3.63%      3.63% |         716     34.16%     37.79% |          14      0.67%     38.45% |          13      0.62%     39.07% |          14      0.67%     39.74% |          13      0.62%     40.36% |          14      0.67%     41.03% |          13      0.62%     41.65% |          13      0.62%     42.27% |          13      0.62%     42.89% |          14      0.67%     43.56% |          15      0.72%     44.27% |          14      0.67%     44.94% |        1111     53.01%     97.95% |          15      0.72%     98.66% |          14      0.67%     99.33% |          14      0.67%    100.00% (Unspecified)
board.cache_hierarchy.ruby_system.L1Cache_Controller.Data_Exclusive::total         2096                       (Unspecified)
board.cache_hierarchy.ruby_system.L1Cache_Controller.DataS_fromL1 |          43      1.79%      1.79% |          51      2.13%      3.92% |         619     25.82%     29.75% |          18      0.75%     30.50% |          19      0.79%     31.29% |          20      0.83%     32.12% |          16      0.67%     32.79% |          17      0.71%     33.50% |          18      0.75%     34.25% |          19      0.79%     35.04% |          22      0.92%     35.96% |          21      0.88%     36.84% |          18      0.75%     37.59% |         378     15.77%     53.36% |        1082     45.14%     98.50% |          16      0.67%     99.17% |          20      0.83%    100.00% (Unspecified)
board.cache_hierarchy.ruby_system.L1Cache_Controller.DataS_fromL1::total         2397                       (Unspecified)
board.cache_hierarchy.ruby_system.L1Cache_Controller.Data_all_Acks |         773      1.18%      1.18% |        3501      5.33%      6.50% |        3695      5.62%     12.12% |        4299      6.54%     18.66% |        4297      6.54%     25.20% |        4304      6.55%     31.75% |        4301      6.54%     38.29% |        4309      6.56%     44.85% |        4301      6.54%     51.39% |        4313      6.56%     57.95% |        4301      6.54%     64.50% |        4300      6.54%     71.04% |        4288      6.52%     77.56% |        2841      4.32%     81.88% |        3291      5.01%     86.89% |        4360      6.63%     93.52% |        4257      6.48%    100.00% (Unspecified)
board.cache_hierarchy.ruby_system.L1Cache_Controller.Data_all_Acks::total        65731                       (Unspecified)
board.cache_hierarchy.ruby_system.L1Cache_Controller.Ack |          29     11.93%     11.93% |          13      5.35%     17.28% |          14      5.76%     23.05% |          13      5.35%     28.40% |          13      5.35%     33.74% |          12      4.94%     38.68% |          13      5.35%     44.03% |          13      5.35%     49.38% |          14      5.76%     55.14% |          14      5.76%     60.91% |          14      5.76%     66.67% |          17      7.00%     73.66% |          16      6.58%     80.25% |          13      5.35%     85.60% |          12      4.94%     90.53% |          11      4.53%     95.06% |          12      4.94%    100.00% (Unspecified)
board.cache_hierarchy.ruby_system.L1Cache_Controller.Ack::total          243                       (Unspecified)
board.cache_hierarchy.ruby_system.L1Cache_Controller.Ack_all |          25     11.16%     11.16% |          13      5.80%     16.96% |          13      5.80%     22.77% |          13      5.80%     28.57% |          13      5.80%     34.38% |          12      5.36%     39.73% |          12      5.36%     45.09% |          12      5.36%     50.45% |          13      5.80%     56.25% |          14      6.25%     62.50% |          13      5.80%     68.30% |          14      6.25%     74.55% |          13      5.80%     80.36% |          11      4.91%     85.27% |          12      5.36%     90.63% |           9      4.02%     94.64% |          12      5.36%    100.00% (Unspecified)
board.cache_hierarchy.ruby_system.L1Cache_Controller.Ack_all::total          224                       (Unspecified)
board.cache_hierarchy.ruby_system.L1Cache_Controller.WB_Ack |         341     60.35%     60.35% |          14      2.48%     62.83% |          14      2.48%     65.31% |          14      2.48%     67.79% |          14      2.48%     70.27% |          14      2.48%     72.74% |          14      2.48%     75.22% |          14      2.48%     77.70% |          14      2.48%     80.18% |          14      2.48%     82.65% |          14      2.48%     85.13% |          14      2.48%     87.61% |          14      2.48%     90.09% |          14      2.48%     92.57% |          14      2.48%     95.04% |          14      2.48%     97.52% |          14      2.48%    100.00% (Unspecified)
board.cache_hierarchy.ruby_system.L1Cache_Controller.WB_Ack::total          565                       (Unspecified)
board.cache_hierarchy.ruby_system.L1Cache_Controller.NP.Load |         125      0.37%      0.37% |        2093      6.22%      6.59% |        2094      6.22%     12.82% |        2094      6.22%     19.04% |        2096      6.23%     25.27% |        2097      6.23%     31.50% |        2095      6.23%     37.73% |        2097      6.23%     43.96% |        2097      6.23%     50.19% |        2097      6.23%     56.43% |        2095      6.23%     62.65% |        2097      6.23%     68.89% |        2095      6.23%     75.11% |        2092      6.22%     81.33% |        2092      6.22%     87.55% |        2093      6.22%     93.77% |        2096      6.23%    100.00% (Unspecified)
board.cache_hierarchy.ruby_system.L1Cache_Controller.NP.Load::total        33645                       (Unspecified)
board.cache_hierarchy.ruby_system.L1Cache_Controller.NP.Ifetch |         339     11.32%     11.32% |         160      5.34%     16.66% |         160      5.34%     22.00% |         161      5.38%     27.38% |         159      5.31%     32.69% |         164      5.48%     38.16% |         160      5.34%     43.51% |         166      5.54%     49.05% |         160      5.34%     54.39% |         170      5.68%     60.07% |         161      5.38%     65.44% |         161      5.38%     70.82% |         160      5.34%     76.16% |         183      6.11%     82.27% |         185      6.18%     88.45% |         185      6.18%     94.62% |         161      5.38%    100.00% (Unspecified)
board.cache_hierarchy.ruby_system.L1Cache_Controller.NP.Ifetch::total         2995                       (Unspecified)
board.cache_hierarchy.ruby_system.L1Cache_Controller.NP.Store |         395     41.89%     41.89% |          28      2.97%     44.86% |          27      2.86%     47.72% |          28      2.97%     50.69% |          28      2.97%     53.66% |          29      3.08%     56.73% |          29      3.08%     59.81% |          29      3.08%     62.88% |          28      2.97%     65.85% |          29      3.08%     68.93% |          28      2.97%     71.90% |          27      2.86%     74.76% |          28      2.97%     77.73% |          61      6.47%     84.20% |          61      6.47%     90.67% |          61      6.47%     97.14% |          27      2.86%    100.00% (Unspecified)
board.cache_hierarchy.ruby_system.L1Cache_Controller.NP.Store::total          943                       (Unspecified)
board.cache_hierarchy.ruby_system.L1Cache_Controller.NP.Inv |          10    100.00%    100.00% |           0      0.00%    100.00% |           0      0.00%    100.00% |           0      0.00%    100.00% |           0      0.00%    100.00% |           0      0.00%    100.00% |           0      0.00%    100.00% |           0      0.00%    100.00% |           0      0.00%    100.00% |           0      0.00%    100.00% |           0      0.00%    100.00% |           0      0.00%    100.00% |           0      0.00%    100.00% |           0      0.00%    100.00% |           0      0.00%    100.00% |           0      0.00%    100.00% |           0      0.00%    100.00% (Unspecified)
board.cache_hierarchy.ruby_system.L1Cache_Controller.NP.Inv::total           10                       (Unspecified)
board.cache_hierarchy.ruby_system.L1Cache_Controller.I.Load |          31     58.49%     58.49% |           0      0.00%     58.49% |           0      0.00%     58.49% |           0      0.00%     58.49% |           0      0.00%     58.49% |           0      0.00%     58.49% |           0      0.00%     58.49% |           0      0.00%     58.49% |           0      0.00%     58.49% |           1      1.89%     60.38% |           5      9.43%     69.81% |           4      7.55%     77.36% |           2      3.77%     81.13% |           4      7.55%     88.68% |           2      3.77%     92.45% |           3      5.66%     98.11% |           1      1.89%    100.00% (Unspecified)
board.cache_hierarchy.ruby_system.L1Cache_Controller.I.Load::total           53                       (Unspecified)
board.cache_hierarchy.ruby_system.L1Cache_Controller.I.Store |           1      0.00%      0.00% |        1987      6.10%      6.10% |        2047      6.28%     12.38% |        2047      6.28%     18.66% |        2047      6.28%     24.95% |        2047      6.28%     31.23% |        2047      6.28%     37.51% |        2047      6.28%     43.79% |        2047      6.28%     50.07% |        2048      6.28%     56.36% |        2048      6.28%     62.64% |        2047      6.28%     68.92% |        2035      6.24%     75.17% |        1990      6.11%     81.27% |        2048      6.28%     87.56% |        2048      6.28%     93.84% |        2006      6.16%    100.00% (Unspecified)
board.cache_hierarchy.ruby_system.L1Cache_Controller.I.Store::total        32587                       (Unspecified)
board.cache_hierarchy.ruby_system.L1Cache_Controller.I.L1_Replacement |          58     96.67%     96.67% |           0      0.00%     96.67% |           0      0.00%     96.67% |           0      0.00%     96.67% |           0      0.00%     96.67% |           1      1.67%     98.33% |           0      0.00%     98.33% |           0      0.00%     98.33% |           0      0.00%     98.33% |           1      1.67%    100.00% |           0      0.00%    100.00% |           0      0.00%    100.00% |           0      0.00%    100.00% |           0      0.00%    100.00% |           0      0.00%    100.00% |           0      0.00%    100.00% |           0      0.00%    100.00% (Unspecified)
board.cache_hierarchy.ruby_system.L1Cache_Controller.I.L1_Replacement::total           60                       (Unspecified)
board.cache_hierarchy.ruby_system.L1Cache_Controller.S.Load |         280     18.56%     18.56% |          64      4.24%     22.80% |          72      4.77%     27.57% |          69      4.57%     32.14% |          67      4.44%     36.58% |          72      4.77%     41.35% |          66      4.37%     45.73% |          74      4.90%     50.63% |          72      4.77%     55.40% |          94      6.23%     61.63% |          90      5.96%     67.59% |          95      6.30%     73.89% |          91      6.03%     79.92% |          71      4.71%     84.63% |          83      5.50%     90.13% |          77      5.10%     95.23% |          72      4.77%    100.00% (Unspecified)
board.cache_hierarchy.ruby_system.L1Cache_Controller.S.Load::total         1509                       (Unspecified)
board.cache_hierarchy.ruby_system.L1Cache_Controller.S.Ifetch |       20352      4.16%      4.16% |       29248      5.97%     10.13% |       29307      5.98%     16.11% |       29306      5.98%     22.10% |       29310      5.99%     28.08% |       29329      5.99%     34.07% |       29317      5.99%     40.06% |       29335      5.99%     46.05% |       29320      5.99%     52.04% |       29374      6.00%     58.03% |       29326      5.99%     64.02% |       29330      5.99%     70.01% |       29314      5.99%     76.00% |       29376      6.00%     82.00% |       29416      6.01%     88.00% |       29413      6.01%     94.01% |       29329      5.99%    100.00% (Unspecified)
board.cache_hierarchy.ruby_system.L1Cache_Controller.S.Ifetch::total       489702                       (Unspecified)
board.cache_hierarchy.ruby_system.L1Cache_Controller.S.Store |          25     11.16%     11.16% |          13      5.80%     16.96% |          13      5.80%     22.77% |          13      5.80%     28.57% |          13      5.80%     34.38% |          12      5.36%     39.73% |          12      5.36%     45.09% |          12      5.36%     50.45% |          13      5.80%     56.25% |          14      6.25%     62.50% |          13      5.80%     68.30% |          14      6.25%     74.55% |          13      5.80%     80.36% |          11      4.91%     85.27% |          12      5.36%     90.63% |           9      4.02%     94.64% |          12      5.36%    100.00% (Unspecified)
board.cache_hierarchy.ruby_system.L1Cache_Controller.S.Store::total          224                       (Unspecified)
board.cache_hierarchy.ruby_system.L1Cache_Controller.S.Inv |          72     30.90%     30.90% |           8      3.43%     34.33% |           8      3.43%     37.77% |           9      3.86%     41.63% |           9      3.86%     45.49% |          10      4.29%     49.79% |           8      3.43%     53.22% |           9      3.86%     57.08% |           9      3.86%     60.94% |          12      5.15%     66.09% |          16      6.87%     72.96% |          10      4.29%     77.25% |           8      3.43%     80.69% |           9      3.86%     84.55% |          13      5.58%     90.13% |          13      5.58%     95.71% |          10      4.29%    100.00% (Unspecified)
board.cache_hierarchy.ruby_system.L1Cache_Controller.S.Inv::total          233                       (Unspecified)
board.cache_hierarchy.ruby_system.L1Cache_Controller.S.L1_Replacement |         460      1.76%      1.76% |        1595      6.11%      7.87% |        1595      6.11%     13.98% |        1596      6.11%     20.09% |        1598      6.12%     26.21% |        1600      6.13%     32.34% |        1598      6.12%     38.46% |        1601      6.13%     44.59% |        1599      6.12%     50.71% |        1600      6.13%     56.84% |        1597      6.12%     62.95% |        1598      6.12%     69.07% |        1597      6.12%     75.19% |        1627      6.23%     81.42% |        1627      6.23%     87.65% |        1628      6.23%     93.88% |        1597      6.12%    100.00% (Unspecified)
board.cache_hierarchy.ruby_system.L1Cache_Controller.S.L1_Replacement::total        26113                       (Unspecified)
board.cache_hierarchy.ruby_system.L1Cache_Controller.E.Load |        1595     91.51%     91.51% |          11      0.63%     92.14% |           8      0.46%     92.60% |           8      0.46%     93.06% |           8      0.46%     93.52% |           8      0.46%     93.98% |          12      0.69%     94.66% |           8      0.46%     95.12% |           8      0.46%     95.58% |           8      0.46%     96.04% |           8      0.46%     96.50% |          11      0.63%     97.13% |           9      0.52%     97.65% |          10      0.57%     98.22% |          11      0.63%     98.85% |          11      0.63%     99.48% |           9      0.52%    100.00% (Unspecified)
board.cache_hierarchy.ruby_system.L1Cache_Controller.E.Load::total         1743                       (Unspecified)
board.cache_hierarchy.ruby_system.L1Cache_Controller.E.Store |          25     15.15%     15.15% |           8      4.85%     20.00% |           9      5.45%     25.45% |           8      4.85%     30.30% |           8      4.85%     35.15% |           8      4.85%     40.00% |           8      4.85%     44.85% |           8      4.85%     49.70% |           8      4.85%     54.55% |           8      4.85%     59.39% |           9      5.45%     64.85% |          10      6.06%     70.91% |           9      5.45%     76.36% |           9      5.45%     81.82% |          10      6.06%     87.88% |          10      6.06%     93.94% |          10      6.06%    100.00% (Unspecified)
board.cache_hierarchy.ruby_system.L1Cache_Controller.E.Store::total          165                       (Unspecified)
board.cache_hierarchy.ruby_system.L1Cache_Controller.E.L1_Replacement |           9     36.00%     36.00% |           1      4.00%     40.00% |           1      4.00%     44.00% |           1      4.00%     48.00% |           1      4.00%     52.00% |           1      4.00%     56.00% |           1      4.00%     60.00% |           1      4.00%     64.00% |           1      4.00%     68.00% |           1      4.00%     72.00% |           1      4.00%     76.00% |           1      4.00%     80.00% |           1      4.00%     84.00% |           1      4.00%     88.00% |           1      4.00%     92.00% |           1      4.00%     96.00% |           1      4.00%    100.00% (Unspecified)
board.cache_hierarchy.ruby_system.L1Cache_Controller.E.L1_Replacement::total           25                       (Unspecified)
board.cache_hierarchy.ruby_system.L1Cache_Controller.E.Fwd_GETS |           6      0.33%      0.33% |         704     38.64%     38.97% |           1      0.05%     39.02% |           1      0.05%     39.08% |           2      0.11%     39.19% |           1      0.05%     39.24% |           2      0.11%     39.35% |           1      0.05%     39.41% |           1      0.05%     39.46% |           1      0.05%     39.52% |           1      0.05%     39.57% |           1      0.05%     39.63% |           1      0.05%     39.68% |        1098     60.26%     99.95% |           1      0.05%    100.00% |           0      0.00%    100.00% |           0      0.00%    100.00% (Unspecified)
board.cache_hierarchy.ruby_system.L1Cache_Controller.E.Fwd_GETS::total         1822                       (Unspecified)
board.cache_hierarchy.ruby_system.L1Cache_Controller.M.Load |       11374      4.61%      4.61% |       14744      5.97%     10.58% |       14715      5.96%     16.54% |       14719      5.96%     22.50% |       14719      5.96%     28.46% |       14733      5.97%     34.42% |       14716      5.96%     40.38% |       14734      5.97%     46.35% |       14717      5.96%     52.31% |       14722      5.96%     58.27% |       14696      5.95%     64.23% |       14712      5.96%     70.18% |       14701      5.95%     76.14% |       14775      5.98%     82.12% |       14719      5.96%     88.08% |       14716      5.96%     94.04% |       14715      5.96%    100.00% (Unspecified)
board.cache_hierarchy.ruby_system.L1Cache_Controller.M.Load::total       246927                       (Unspecified)
board.cache_hierarchy.ruby_system.L1Cache_Controller.M.Store |       22382      9.88%      9.88% |       12757      5.63%     15.52% |       12697      5.61%     21.12% |       12697      5.61%     26.73% |       12697      5.61%     32.33% |       12697      5.61%     37.94% |       12697      5.61%     43.55% |       12697      5.61%     49.15% |       12697      5.61%     54.76% |       12697      5.61%     60.37% |       12695      5.61%     65.97% |       12695      5.61%     71.58% |       12708      5.61%     77.19% |       13015      5.75%     82.93% |       12954      5.72%     88.65% |       12960      5.72%     94.38% |       12738      5.62%    100.00% (Unspecified)
board.cache_hierarchy.ruby_system.L1Cache_Controller.M.Store::total       226480                       (Unspecified)
board.cache_hierarchy.ruby_system.L1Cache_Controller.M.L1_Replacement |         332     61.48%     61.48% |          13      2.41%     63.89% |          13      2.41%     66.30% |          13      2.41%     68.70% |          13      2.41%     71.11% |          13      2.41%     73.52% |          13      2.41%     75.93% |          13      2.41%     78.33% |          13      2.41%     80.74% |          13      2.41%     83.15% |          13      2.41%     85.56% |          13      2.41%     87.96% |          13      2.41%     90.37% |          13      2.41%     92.78% |          13      2.41%     95.19% |          13      2.41%     97.59% |          13      2.41%    100.00% (Unspecified)
board.cache_hierarchy.ruby_system.L1Cache_Controller.M.L1_Replacement::total          540                       (Unspecified)
board.cache_hierarchy.ruby_system.L1Cache_Controller.M.Fwd_GETX |          40      0.12%      0.12% |        2001      6.10%      6.22% |        2061      6.28%     12.50% |        2061      6.28%     18.78% |        2061      6.28%     25.06% |        2061      6.28%     31.34% |        2061      6.28%     37.62% |        2061      6.28%     43.91% |        2061      6.28%     50.19% |        2062      6.28%     56.47% |        2062      6.28%     62.75% |        2050      6.25%     69.00% |        2035      6.20%     75.20% |        1994      6.08%     81.28% |        2062      6.28%     87.56% |        2061      6.28%     93.84% |        2020      6.16%    100.00% (Unspecified)
board.cache_hierarchy.ruby_system.L1Cache_Controller.M.Fwd_GETX::total        32814                       (Unspecified)
board.cache_hierarchy.ruby_system.L1Cache_Controller.M.Fwd_GETS |         413     71.83%     71.83% |          10      1.74%     73.57% |          10      1.74%     75.30% |          10      1.74%     77.04% |          10      1.74%     78.78% |          10      1.74%     80.52% |          10      1.74%     82.26% |          10      1.74%     84.00% |          10      1.74%     85.74% |          12      2.09%     87.83% |          11      1.91%     89.74% |           7      1.22%     90.96% |           7      1.22%     92.17% |           7      1.22%     93.39% |          15      2.61%     96.00% |          13      2.26%     98.26% |          10      1.74%    100.00% (Unspecified)
board.cache_hierarchy.ruby_system.L1Cache_Controller.M.Fwd_GETS::total          575                       (Unspecified)
board.cache_hierarchy.ruby_system.L1Cache_Controller.IS.Data_Exclusive |          76      3.63%      3.63% |         716     34.16%     37.79% |          14      0.67%     38.45% |          13      0.62%     39.07% |          14      0.67%     39.74% |          13      0.62%     40.36% |          14      0.67%     41.03% |          13      0.62%     41.65% |          13      0.62%     42.27% |          13      0.62%     42.89% |          14      0.67%     43.56% |          15      0.72%     44.27% |          14      0.67%     44.94% |        1111     53.01%     97.95% |          15      0.72%     98.66% |          14      0.67%     99.33% |          14      0.67%    100.00% (Unspecified)
board.cache_hierarchy.ruby_system.L1Cache_Controller.IS.Data_Exclusive::total         2096                       (Unspecified)
board.cache_hierarchy.ruby_system.L1Cache_Controller.IS.DataS_fromL1 |          43      1.79%      1.79% |          51      2.13%      3.92% |         619     25.82%     29.75% |          18      0.75%     30.50% |          19      0.79%     31.29% |          20      0.83%     32.12% |          16      0.67%     32.79% |          17      0.71%     33.50% |          18      0.75%     34.25% |          19      0.79%     35.04% |          22      0.92%     35.96% |          21      0.88%     36.84% |          18      0.75%     37.59% |         378     15.77%     53.36% |        1082     45.14%     98.50% |          16      0.67%     99.17% |          20      0.83%    100.00% (Unspecified)
board.cache_hierarchy.ruby_system.L1Cache_Controller.IS.DataS_fromL1::total         2397                       (Unspecified)
board.cache_hierarchy.ruby_system.L1Cache_Controller.IS.Data_all_Acks |         377      1.17%      1.17% |        1486      4.61%      5.79% |        1621      5.03%     10.82% |        2224      6.91%     17.73% |        2222      6.90%     24.63% |        2228      6.92%     31.55% |        2225      6.91%     38.46% |        2233      6.93%     45.39% |        2226      6.91%     52.30% |        2236      6.94%     59.25% |        2225      6.91%     66.16% |        2226      6.91%     73.07% |        2225      6.91%     79.98% |         790      2.45%     82.43% |        1182      3.67%     86.10% |        2251      6.99%     93.09% |        2224      6.91%    100.00% (Unspecified)
board.cache_hierarchy.ruby_system.L1Cache_Controller.IS.Data_all_Acks::total        32201                       (Unspecified)
board.cache_hierarchy.ruby_system.L1Cache_Controller.IM.Data_all_Acks |         396      1.18%      1.18% |        2015      6.01%      7.19% |        2074      6.19%     13.38% |        2075      6.19%     19.56% |        2075      6.19%     25.75% |        2076      6.19%     31.94% |        2076      6.19%     38.14% |        2076      6.19%     44.33% |        2075      6.19%     50.52% |        2077      6.19%     56.71% |        2076      6.19%     62.90% |        2074      6.19%     69.09% |        2063      6.15%     75.24% |        2051      6.12%     81.36% |        2109      6.29%     87.65% |        2109      6.29%     93.94% |        2033      6.06%    100.00% (Unspecified)
board.cache_hierarchy.ruby_system.L1Cache_Controller.IM.Data_all_Acks::total        33530                       (Unspecified)
board.cache_hierarchy.ruby_system.L1Cache_Controller.SM.Ack |          29     11.93%     11.93% |          13      5.35%     17.28% |          14      5.76%     23.05% |          13      5.35%     28.40% |          13      5.35%     33.74% |          12      4.94%     38.68% |          13      5.35%     44.03% |          13      5.35%     49.38% |          14      5.76%     55.14% |          14      5.76%     60.91% |          14      5.76%     66.67% |          17      7.00%     73.66% |          16      6.58%     80.25% |          13      5.35%     85.60% |          12      4.94%     90.53% |          11      4.53%     95.06% |          12      4.94%    100.00% (Unspecified)
board.cache_hierarchy.ruby_system.L1Cache_Controller.SM.Ack::total          243                       (Unspecified)
board.cache_hierarchy.ruby_system.L1Cache_Controller.SM.Ack_all |          25     11.16%     11.16% |          13      5.80%     16.96% |          13      5.80%     22.77% |          13      5.80%     28.57% |          13      5.80%     34.38% |          12      5.36%     39.73% |          12      5.36%     45.09% |          12      5.36%     50.45% |          13      5.80%     56.25% |          14      6.25%     62.50% |          13      5.80%     68.30% |          14      6.25%     74.55% |          13      5.80%     80.36% |          11      4.91%     85.27% |          12      5.36%     90.63% |           9      4.02%     94.64% |          12      5.36%    100.00% (Unspecified)
board.cache_hierarchy.ruby_system.L1Cache_Controller.SM.Ack_all::total          224                       (Unspecified)
board.cache_hierarchy.ruby_system.L1Cache_Controller.M_I.WB_Ack |         341     60.35%     60.35% |          14      2.48%     62.83% |          14      2.48%     65.31% |          14      2.48%     67.79% |          14      2.48%     70.27% |          14      2.48%     72.74% |          14      2.48%     75.22% |          14      2.48%     77.70% |          14      2.48%     80.18% |          14      2.48%     82.65% |          14      2.48%     85.13% |          14      2.48%     87.61% |          14      2.48%     90.09% |          14      2.48%     92.57% |          14      2.48%     95.04% |          14      2.48%     97.52% |          14      2.48%    100.00% (Unspecified)
board.cache_hierarchy.ruby_system.L1Cache_Controller.M_I.WB_Ack::total          565                       (Unspecified)
board.cache_hierarchy.ruby_system.L2Cache_Controller.L1_GET_INSTR |         134      4.47%      4.47% |         161      5.37%      9.85% |         217      7.24%     17.09% |         243      8.11%     25.20% |         215      7.18%     32.38% |         191      6.38%     38.75% |         212      7.08%     45.83% |         151      5.04%     50.87% |         199      6.64%     57.51% |         200      6.68%     64.19% |         187      6.24%     70.43% |         208      6.94%     77.37% |         214      7.14%     84.51% |         204      6.81%     91.32% |         152      5.07%     96.40% |         108      3.60%    100.00% (Unspecified)
board.cache_hierarchy.ruby_system.L2Cache_Controller.L1_GET_INSTR::total         2996                       (Unspecified)
board.cache_hierarchy.ruby_system.L2Cache_Controller.L1_GETS |        2068      6.14%      6.14% |        2151      6.38%     12.52% |        2137      6.34%     18.86% |        2141      6.35%     25.21% |        2121      6.29%     31.51% |        2121      6.29%     37.80% |        2107      6.25%     44.05% |        2079      6.17%     50.22% |        2093      6.21%     56.43% |        2123      6.30%     62.73% |        2119      6.29%     69.02% |        2052      6.09%     75.11% |        2086      6.19%     81.30% |        2093      6.21%     87.51% |        2109      6.26%     93.77% |        2101      6.23%    100.00% (Unspecified)
board.cache_hierarchy.ruby_system.L2Cache_Controller.L1_GETS::total        33701                       (Unspecified)
board.cache_hierarchy.ruby_system.L2Cache_Controller.L1_GETX |      200879     93.73%     93.73% |       12594      5.88%     99.61% |          49      0.02%     99.63% |          50      0.02%     99.65% |          84      0.04%     99.69% |         110      0.05%     99.74% |          75      0.03%     99.78% |          78      0.04%     99.82% |          78      0.04%     99.85% |          45      0.02%     99.87% |          52      0.02%     99.90% |          30      0.01%     99.91% |          62      0.03%     99.94% |          61      0.03%     99.97% |          39      0.02%     99.99% |          28      0.01%    100.00% (Unspecified)
board.cache_hierarchy.ruby_system.L2Cache_Controller.L1_GETX::total       214314                       (Unspecified)
board.cache_hierarchy.ruby_system.L2Cache_Controller.L1_UPGRADE |           1      0.44%      0.44% |          51     22.57%     23.01% |          31     13.72%     36.73% |          15      6.64%     43.36% |          15      6.64%     50.00% |          33     14.60%     64.60% |           3      1.33%     65.93% |           5      2.21%     68.14% |           2      0.88%     69.03% |           2      0.88%     69.91% |          32     14.16%     84.07% |           0      0.00%     84.07% |          15      6.64%     90.71% |           3      1.33%     92.04% |          17      7.52%     99.56% |           1      0.44%    100.00% (Unspecified)
board.cache_hierarchy.ruby_system.L2Cache_Controller.L1_UPGRADE::total          226                       (Unspecified)
board.cache_hierarchy.ruby_system.L2Cache_Controller.L1_PUTX |          24      4.25%      4.25% |          50      8.85%     13.10% |          31      5.49%     18.58% |          43      7.61%     26.19% |          62     10.97%     37.17% |          63     11.15%     48.32% |          46      8.14%     56.46% |          47      8.32%     64.78% |          47      8.32%     73.10% |          31      5.49%     78.58% |          31      5.49%     84.07% |          10      1.77%     85.84% |          27      4.78%     90.62% |          30      5.31%     95.93% |          15      2.65%     98.58% |           8      1.42%    100.00% (Unspecified)
board.cache_hierarchy.ruby_system.L2Cache_Controller.L1_PUTX::total          565                       (Unspecified)
board.cache_hierarchy.ruby_system.L2Cache_Controller.Mem_Data |          56      5.09%      5.09% |          72      6.54%     11.63% |          74      6.72%     18.35% |          76      6.90%     25.25% |          90      8.17%     33.42% |          90      8.17%     41.60% |          70      6.36%     47.96% |          66      5.99%     53.95% |          69      6.27%     60.22% |          72      6.54%     66.76% |          57      5.18%     71.93% |          39      3.54%     75.48% |          62      5.63%     81.11% |          76      6.90%     88.01% |          66      5.99%     94.01% |          66      5.99%    100.00% (Unspecified)
board.cache_hierarchy.ruby_system.L2Cache_Controller.Mem_Data::total         1101                       (Unspecified)
board.cache_hierarchy.ruby_system.L2Cache_Controller.WB_Data |          23      4.00%      4.00% |          82     14.26%     18.26% |          64     11.13%     29.39% |          35      6.09%     35.48% |          31      5.39%     40.87% |          59     10.26%     51.13% |          18      3.13%     54.26% |          21      3.65%     57.91% |          20      3.48%     61.39% |          38      6.61%     68.00% |          45      7.83%     75.83% |          20      3.48%     79.30% |          28      4.87%     84.17% |          32      5.57%     89.74% |          34      5.91%     95.65% |          25      4.35%    100.00% (Unspecified)
board.cache_hierarchy.ruby_system.L2Cache_Controller.WB_Data::total          575                       (Unspecified)
board.cache_hierarchy.ruby_system.L2Cache_Controller.WB_Data_clean |         108      5.93%      5.93% |         111      6.09%     12.02% |         114      6.26%     18.28% |         126      6.92%     25.19% |         114      6.26%     31.45% |         118      6.48%     37.93% |         116      6.37%     44.29% |         113      6.20%     50.49% |         113      6.20%     56.70% |         112      6.15%     62.84% |         115      6.31%     69.15% |         108      5.93%     75.08% |         116      6.37%     81.45% |         116      6.37%     87.82% |         115      6.31%     94.13% |         107      5.87%    100.00% (Unspecified)
board.cache_hierarchy.ruby_system.L2Cache_Controller.WB_Data_clean::total         1822                       (Unspecified)
board.cache_hierarchy.ruby_system.L2Cache_Controller.Unblock |         131      5.47%      5.47% |         193      8.05%     13.52% |         178      7.43%     20.94% |         161      6.72%     27.66% |         145      6.05%     33.71% |         177      7.38%     41.09% |         134      5.59%     46.68% |         134      5.59%     52.27% |         133      5.55%     57.82% |         150      6.26%     64.08% |         160      6.68%     70.76% |         128      5.34%     76.10% |         144      6.01%     82.10% |         148      6.17%     88.28% |         149      6.22%     94.49% |         132      5.51%    100.00% (Unspecified)
board.cache_hierarchy.ruby_system.L2Cache_Controller.Unblock::total         2397                       (Unspecified)
board.cache_hierarchy.ruby_system.L2Cache_Controller.Exclusive_Unblock |       24674     68.83%     68.83% |        8341     23.27%     92.09% |         212      0.59%     92.68% |         208      0.58%     93.26% |         251      0.70%     93.96% |         283      0.79%     94.75% |         217      0.61%     95.36% |         216      0.60%     95.96% |         214      0.60%     96.56% |         179      0.50%     97.06% |         201      0.56%     97.62% |         141      0.39%     98.01% |         198      0.55%     98.56% |         182      0.51%     99.07% |         178      0.50%     99.57% |         155      0.43%    100.00% (Unspecified)
board.cache_hierarchy.ruby_system.L2Cache_Controller.Exclusive_Unblock::total        35850                       (Unspecified)
board.cache_hierarchy.ruby_system.L2Cache_Controller.NP.L1_GET_INSTR |          25      6.53%      6.53% |          25      6.53%     13.05% |          26      6.79%     19.84% |          28      7.31%     27.15% |          26      6.79%     33.94% |          25      6.53%     40.47% |          20      5.22%     45.69% |          18      4.70%     50.39% |          20      5.22%     55.61% |          24      6.27%     61.88% |          24      6.27%     68.15% |          22      5.74%     73.89% |          28      7.31%     81.20% |          28      7.31%     88.51% |          22      5.74%     94.26% |          22      5.74%    100.00% (Unspecified)
board.cache_hierarchy.ruby_system.L2Cache_Controller.NP.L1_GET_INSTR::total          383                       (Unspecified)
board.cache_hierarchy.ruby_system.L2Cache_Controller.NP.L1_GETS |           0      0.00%      0.00% |           2      3.12%      3.12% |           0      0.00%      3.12% |           0      0.00%      3.12% |          16     25.00%     28.12% |           1      1.56%     29.69% |           2      3.12%     32.81% |           0      0.00%     32.81% |           1      1.56%     34.38% |          17     26.56%     60.94% |           2      3.12%     64.06% |           0      0.00%     64.06% |           1      1.56%     65.62% |           0      0.00%     65.62% |           5      7.81%     73.44% |          17     26.56%    100.00% (Unspecified)
board.cache_hierarchy.ruby_system.L2Cache_Controller.NP.L1_GETS::total           64                       (Unspecified)
board.cache_hierarchy.ruby_system.L2Cache_Controller.NP.L1_GETX |          31      4.74%      4.74% |          45      6.88%     11.62% |          48      7.34%     18.96% |          48      7.34%     26.30% |          48      7.34%     33.64% |          64      9.79%     43.43% |          48      7.34%     50.76% |          48      7.34%     58.10% |          48      7.34%     65.44% |          31      4.74%     70.18% |          31      4.74%     74.92% |          17      2.60%     77.52% |          33      5.05%     82.57% |          48      7.34%     89.91% |          39      5.96%     95.87% |          27      4.13%    100.00% (Unspecified)
board.cache_hierarchy.ruby_system.L2Cache_Controller.NP.L1_GETX::total          654                       (Unspecified)
board.cache_hierarchy.ruby_system.L2Cache_Controller.SS.L1_GET_INSTR |         109      4.17%      4.17% |         136      5.20%      9.38% |         191      7.31%     16.69% |         215      8.23%     24.91% |         189      7.23%     32.15% |         166      6.35%     38.50% |         192      7.35%     45.85% |         133      5.09%     50.94% |         179      6.85%     57.79% |         176      6.74%     64.52% |         163      6.24%     70.76% |         186      7.12%     77.88% |         186      7.12%     85.00% |         176      6.74%     91.73% |         130      4.98%     96.71% |          86      3.29%    100.00% (Unspecified)
board.cache_hierarchy.ruby_system.L2Cache_Controller.SS.L1_GET_INSTR::total         2613                       (Unspecified)
board.cache_hierarchy.ruby_system.L2Cache_Controller.SS.L1_GETS |        1812      6.20%      6.20% |        1811      6.20%     12.41% |        1827      6.26%     18.66% |        1837      6.29%     24.95% |        1824      6.25%     31.20% |        1804      6.18%     37.37% |        1834      6.28%     43.65% |        1812      6.20%     49.86% |        1826      6.25%     56.11% |        1840      6.30%     62.41% |        1836      6.29%     68.70% |        1813      6.21%     74.90% |        1821      6.24%     81.14% |        1827      6.26%     87.40% |        1838      6.29%     93.69% |        1843      6.31%    100.00% (Unspecified)
board.cache_hierarchy.ruby_system.L2Cache_Controller.SS.L1_GETS::total        29205                       (Unspecified)
board.cache_hierarchy.ruby_system.L2Cache_Controller.SS.L1_UPGRADE |           1      0.45%      0.45% |          51     22.77%     23.21% |          31     13.84%     37.05% |          15      6.70%     43.75% |          15      6.70%     50.45% |          33     14.73%     65.18% |           3      1.34%     66.52% |           5      2.23%     68.75% |           2      0.89%     69.64% |           2      0.89%     70.54% |          30     13.39%     83.93% |           0      0.00%     83.93% |          15      6.70%     90.62% |           3      1.34%     91.96% |          17      7.59%     99.55% |           1      0.45%    100.00% (Unspecified)
board.cache_hierarchy.ruby_system.L2Cache_Controller.SS.L1_UPGRADE::total          224                       (Unspecified)
board.cache_hierarchy.ruby_system.L2Cache_Controller.M.L1_GETS |         125      6.15%      6.15% |         145      7.14%     13.29% |         132      6.50%     19.78% |         143      7.04%     26.82% |         136      6.69%     33.51% |         139      6.84%     40.35% |         137      6.74%     47.10% |         133      6.55%     53.64% |         133      6.55%     60.19% |         115      5.66%     65.85% |         119      5.86%     71.70% |         111      5.46%     77.17% |         120      5.91%     83.07% |         118      5.81%     88.88% |         117      5.76%     94.64% |         109      5.36%    100.00% (Unspecified)
board.cache_hierarchy.ruby_system.L2Cache_Controller.M.L1_GETS::total         2032                       (Unspecified)
board.cache_hierarchy.ruby_system.L2Cache_Controller.M.L1_GETX |           2      3.23%      3.23% |           2      3.23%      6.45% |           1      1.61%      8.06% |           2      3.23%     11.29% |          20     32.26%     43.55% |          17     27.42%     70.97% |           1      1.61%     72.58% |           1      1.61%     74.19% |           1      1.61%     75.81% |           1      1.61%     77.42% |           1      1.61%     79.03% |           0      0.00%     79.03% |          12     19.35%     98.39% |           0      0.00%     98.39% |           0      0.00%     98.39% |           1      1.61%    100.00% (Unspecified)
board.cache_hierarchy.ruby_system.L2Cache_Controller.M.L1_GETX::total           62                       (Unspecified)
board.cache_hierarchy.ruby_system.L2Cache_Controller.MT.L1_GETS |         131      5.47%      5.47% |         193      8.05%     13.52% |         178      7.43%     20.94% |         161      6.72%     27.66% |         145      6.05%     33.71% |         177      7.38%     41.09% |         134      5.59%     46.68% |         134      5.59%     52.27% |         133      5.55%     57.82% |         150      6.26%     64.08% |         160      6.68%     70.76% |         128      5.34%     76.10% |         144      6.01%     82.10% |         148      6.17%     88.28% |         149      6.22%     94.49% |         132      5.51%    100.00% (Unspecified)
board.cache_hierarchy.ruby_system.L2Cache_Controller.MT.L1_GETS::total         2397                       (Unspecified)
board.cache_hierarchy.ruby_system.L2Cache_Controller.MT.L1_GETX |       24515     74.71%     74.71% |        8096     24.67%     99.38% |           0      0.00%     99.38% |           0      0.00%     99.38% |          16      0.05%     99.43% |          29      0.09%     99.52% |          26      0.08%     99.60% |          29      0.09%     99.69% |          29      0.09%     99.77% |          13      0.04%     99.81% |          18      0.05%     99.87% |          13      0.04%     99.91% |          17      0.05%     99.96% |          13      0.04%    100.00% |           0      0.00%    100.00% |           0      0.00%    100.00% (Unspecified)
board.cache_hierarchy.ruby_system.L2Cache_Controller.MT.L1_GETX::total        32814                       (Unspecified)
board.cache_hierarchy.ruby_system.L2Cache_Controller.MT.L1_PUTX |          24      4.25%      4.25% |          50      8.85%     13.10% |          31      5.49%     18.58% |          43      7.61%     26.19% |          62     10.97%     37.17% |          63     11.15%     48.32% |          46      8.14%     56.46% |          47      8.32%     64.78% |          47      8.32%     73.10% |          31      5.49%     78.58% |          31      5.49%     84.07% |          10      1.77%     85.84% |          27      4.78%     90.62% |          30      5.31%     95.93% |          15      2.65%     98.58% |           8      1.42%    100.00% (Unspecified)
board.cache_hierarchy.ruby_system.L2Cache_Controller.MT.L1_PUTX::total          565                       (Unspecified)
board.cache_hierarchy.ruby_system.L2Cache_Controller.ISS.Mem_Data |           0      0.00%      0.00% |           2      3.12%      3.12% |           0      0.00%      3.12% |           0      0.00%      3.12% |          16     25.00%     28.12% |           1      1.56%     29.69% |           2      3.12%     32.81% |           0      0.00%     32.81% |           1      1.56%     34.38% |          17     26.56%     60.94% |           2      3.12%     64.06% |           0      0.00%     64.06% |           1      1.56%     65.62% |           0      0.00%     65.62% |           5      7.81%     73.44% |          17     26.56%    100.00% (Unspecified)
board.cache_hierarchy.ruby_system.L2Cache_Controller.ISS.Mem_Data::total           64                       (Unspecified)
board.cache_hierarchy.ruby_system.L2Cache_Controller.IS.Mem_Data |          25      6.53%      6.53% |          25      6.53%     13.05% |          26      6.79%     19.84% |          28      7.31%     27.15% |          26      6.79%     33.94% |          25      6.53%     40.47% |          20      5.22%     45.69% |          18      4.70%     50.39% |          20      5.22%     55.61% |          24      6.27%     61.88% |          24      6.27%     68.15% |          22      5.74%     73.89% |          28      7.31%     81.20% |          28      7.31%     88.51% |          22      5.74%     94.26% |          22      5.74%    100.00% (Unspecified)
board.cache_hierarchy.ruby_system.L2Cache_Controller.IS.Mem_Data::total          383                       (Unspecified)
board.cache_hierarchy.ruby_system.L2Cache_Controller.IM.Mem_Data |          31      4.74%      4.74% |          45      6.88%     11.62% |          48      7.34%     18.96% |          48      7.34%     26.30% |          48      7.34%     33.64% |          64      9.79%     43.43% |          48      7.34%     50.76% |          48      7.34%     58.10% |          48      7.34%     65.44% |          31      4.74%     70.18% |          31      4.74%     74.92% |          17      2.60%     77.52% |          33      5.05%     82.57% |          48      7.34%     89.91% |          39      5.96%     95.87% |          27      4.13%    100.00% (Unspecified)
board.cache_hierarchy.ruby_system.L2Cache_Controller.IM.Mem_Data::total          654                       (Unspecified)
board.cache_hierarchy.ruby_system.L2Cache_Controller.SS_MB.L1_GETS |           0      0.00%      0.00% |           0      0.00%      0.00% |           0      0.00%      0.00% |           0      0.00%      0.00% |           0      0.00%      0.00% |           0      0.00%      0.00% |           0      0.00%      0.00% |           0      0.00%      0.00% |           0      0.00%      0.00% |           0      0.00%      0.00% |           2    100.00%    100.00% |           0      0.00%    100.00% |           0      0.00%    100.00% |           0      0.00%    100.00% |           0      0.00%    100.00% |           0      0.00%    100.00% (Unspecified)
board.cache_hierarchy.ruby_system.L2Cache_Controller.SS_MB.L1_GETS::total            2                       (Unspecified)
board.cache_hierarchy.ruby_system.L2Cache_Controller.SS_MB.L1_GETX |           0      0.00%      0.00% |           0      0.00%      0.00% |           0      0.00%      0.00% |           0      0.00%      0.00% |           0      0.00%      0.00% |           0      0.00%      0.00% |           0      0.00%      0.00% |           0      0.00%      0.00% |           0      0.00%      0.00% |           0      0.00%      0.00% |           1    100.00%    100.00% |           0      0.00%    100.00% |           0      0.00%    100.00% |           0      0.00%    100.00% |           0      0.00%    100.00% |           0      0.00%    100.00% (Unspecified)
board.cache_hierarchy.ruby_system.L2Cache_Controller.SS_MB.L1_GETX::total            1                       (Unspecified)
board.cache_hierarchy.ruby_system.L2Cache_Controller.SS_MB.Exclusive_Unblock |           1      0.45%      0.45% |          51     22.77%     23.21% |          31     13.84%     37.05% |          15      6.70%     43.75% |          15      6.70%     50.45% |          33     14.73%     65.18% |           3      1.34%     66.52% |           5      2.23%     68.75% |           2      0.89%     69.64% |           2      0.89%     70.54% |          30     13.39%     83.93% |           0      0.00%     83.93% |          15      6.70%     90.62% |           3      1.34%     91.96% |          17      7.59%     99.55% |           1      0.45%    100.00% (Unspecified)
board.cache_hierarchy.ruby_system.L2Cache_Controller.SS_MB.Exclusive_Unblock::total          224                       (Unspecified)
board.cache_hierarchy.ruby_system.L2Cache_Controller.MT_MB.L1_GETX |      176331     97.54%     97.54% |        4451      2.46%    100.00% |           0      0.00%    100.00% |           0      0.00%    100.00% |           0      0.00%    100.00% |           0      0.00%    100.00% |           0      0.00%    100.00% |           0      0.00%    100.00% |           0      0.00%    100.00% |           0      0.00%    100.00% |           1      0.00%    100.00% |           0      0.00%    100.00% |           0      0.00%    100.00% |           0      0.00%    100.00% |           0      0.00%    100.00% |           0      0.00%    100.00% (Unspecified)
board.cache_hierarchy.ruby_system.L2Cache_Controller.MT_MB.L1_GETX::total       180783                       (Unspecified)
board.cache_hierarchy.ruby_system.L2Cache_Controller.MT_MB.Exclusive_Unblock |       24673     69.26%     69.26% |        8290     23.27%     92.53% |         181      0.51%     93.03% |         193      0.54%     93.57% |         236      0.66%     94.24% |         250      0.70%     94.94% |         214      0.60%     95.54% |         211      0.59%     96.13% |         212      0.60%     96.73% |         177      0.50%     97.22% |         171      0.48%     97.70% |         141      0.40%     98.10% |         183      0.51%     98.61% |         179      0.50%     99.12% |         161      0.45%     99.57% |         154      0.43%    100.00% (Unspecified)
board.cache_hierarchy.ruby_system.L2Cache_Controller.MT_MB.Exclusive_Unblock::total        35626                       (Unspecified)
board.cache_hierarchy.ruby_system.L2Cache_Controller.MT_IIB.WB_Data |          22      4.04%      4.04% |          65     11.95%     15.99% |          63     11.58%     27.57% |          34      6.25%     33.82% |          30      5.51%     39.34% |          58     10.66%     50.00% |          18      3.31%     53.31% |          20      3.68%     56.99% |          20      3.68%     60.66% |          38      6.99%     67.65% |          38      6.99%     74.63% |          20      3.68%     78.31% |          28      5.15%     83.46% |          32      5.88%     89.34% |          34      6.25%     95.59% |          24      4.41%    100.00% (Unspecified)
board.cache_hierarchy.ruby_system.L2Cache_Controller.MT_IIB.WB_Data::total          544                       (Unspecified)
board.cache_hierarchy.ruby_system.L2Cache_Controller.MT_IIB.WB_Data_clean |         108      5.97%      5.97% |         110      6.08%     12.05% |         114      6.30%     18.35% |         115      6.36%     24.71% |         114      6.30%     31.01% |         118      6.52%     37.53% |         116      6.41%     43.95% |         113      6.25%     50.19% |         113      6.25%     56.44% |         112      6.19%     62.63% |         115      6.36%     68.99% |         108      5.97%     74.96% |         116      6.41%     81.37% |         116      6.41%     87.78% |         114      6.30%     94.09% |         107      5.91%    100.00% (Unspecified)
board.cache_hierarchy.ruby_system.L2Cache_Controller.MT_IIB.WB_Data_clean::total         1809                       (Unspecified)
board.cache_hierarchy.ruby_system.L2Cache_Controller.MT_IIB.Unblock |           1      2.27%      2.27% |          18     40.91%     43.18% |           1      2.27%     45.45% |          12     27.27%     72.73% |           1      2.27%     75.00% |           1      2.27%     77.27% |           0      0.00%     77.27% |           1      2.27%     79.55% |           0      0.00%     79.55% |           0      0.00%     79.55% |           7     15.91%     95.45% |           0      0.00%     95.45% |           0      0.00%     95.45% |           0      0.00%     95.45% |           1      2.27%     97.73% |           1      2.27%    100.00% (Unspecified)
board.cache_hierarchy.ruby_system.L2Cache_Controller.MT_IIB.Unblock::total           44                       (Unspecified)
board.cache_hierarchy.ruby_system.L2Cache_Controller.MT_IB.WB_Data |           1      3.23%      3.23% |          17     54.84%     58.06% |           1      3.23%     61.29% |           1      3.23%     64.52% |           1      3.23%     67.74% |           1      3.23%     70.97% |           0      0.00%     70.97% |           1      3.23%     74.19% |           0      0.00%     74.19% |           0      0.00%     74.19% |           7     22.58%     96.77% |           0      0.00%     96.77% |           0      0.00%     96.77% |           0      0.00%     96.77% |           0      0.00%     96.77% |           1      3.23%    100.00% (Unspecified)
board.cache_hierarchy.ruby_system.L2Cache_Controller.MT_IB.WB_Data::total           31                       (Unspecified)
board.cache_hierarchy.ruby_system.L2Cache_Controller.MT_IB.WB_Data_clean |           0      0.00%      0.00% |           1      7.69%      7.69% |           0      0.00%      7.69% |          11     84.62%     92.31% |           0      0.00%     92.31% |           0      0.00%     92.31% |           0      0.00%     92.31% |           0      0.00%     92.31% |           0      0.00%     92.31% |           0      0.00%     92.31% |           0      0.00%     92.31% |           0      0.00%     92.31% |           0      0.00%     92.31% |           0      0.00%     92.31% |           1      7.69%    100.00% |           0      0.00%    100.00% (Unspecified)
board.cache_hierarchy.ruby_system.L2Cache_Controller.MT_IB.WB_Data_clean::total           13                       (Unspecified)
board.cache_hierarchy.ruby_system.L2Cache_Controller.MT_SB.L1_GETS |           0      0.00%      0.00% |           0      0.00%      0.00% |           0      0.00%      0.00% |           0      0.00%      0.00% |           0      0.00%      0.00% |           0      0.00%      0.00% |           0      0.00%      0.00% |           0      0.00%      0.00% |           0      0.00%      0.00% |           1    100.00%    100.00% |           0      0.00%    100.00% |           0      0.00%    100.00% |           0      0.00%    100.00% |           0      0.00%    100.00% |           0      0.00%    100.00% |           0      0.00%    100.00% (Unspecified)
board.cache_hierarchy.ruby_system.L2Cache_Controller.MT_SB.L1_GETS::total            1                       (Unspecified)
board.cache_hierarchy.ruby_system.L2Cache_Controller.MT_SB.L1_UPGRADE |           0      0.00%      0.00% |           0      0.00%      0.00% |           0      0.00%      0.00% |           0      0.00%      0.00% |           0      0.00%      0.00% |           0      0.00%      0.00% |           0      0.00%      0.00% |           0      0.00%      0.00% |           0      0.00%      0.00% |           0      0.00%      0.00% |           2    100.00%    100.00% |           0      0.00%    100.00% |           0      0.00%    100.00% |           0      0.00%    100.00% |           0      0.00%    100.00% |           0      0.00%    100.00% (Unspecified)
board.cache_hierarchy.ruby_system.L2Cache_Controller.MT_SB.L1_UPGRADE::total            2                       (Unspecified)
board.cache_hierarchy.ruby_system.L2Cache_Controller.MT_SB.Unblock |         130      5.52%      5.52% |         175      7.44%     12.96% |         177      7.52%     20.48% |         149      6.33%     26.82% |         144      6.12%     32.94% |         176      7.48%     40.42% |         134      5.69%     46.11% |         133      5.65%     51.76% |         133      5.65%     57.42% |         150      6.37%     63.79% |         153      6.50%     70.29% |         128      5.44%     75.73% |         144      6.12%     81.85% |         148      6.29%     88.14% |         148      6.29%     94.43% |         131      5.57%    100.00% (Unspecified)
board.cache_hierarchy.ruby_system.L2Cache_Controller.MT_SB.Unblock::total         2353                       (Unspecified)
board.cache_hierarchy.ruby_system.RequestType.LD.latency_hist_seqr::bucket_size          128                       (Unspecified)
board.cache_hierarchy.ruby_system.RequestType.LD.latency_hist_seqr::max_bucket         1279                       (Unspecified)
board.cache_hierarchy.ruby_system.RequestType.LD.latency_hist_seqr::samples       283877                       (Unspecified)
board.cache_hierarchy.ruby_system.RequestType.LD.latency_hist_seqr::mean     3.463433                       (Unspecified)
board.cache_hierarchy.ruby_system.RequestType.LD.latency_hist_seqr::gmean     1.437249                       (Unspecified)
board.cache_hierarchy.ruby_system.RequestType.LD.latency_hist_seqr::stdev     7.871241                       (Unspecified)
board.cache_hierarchy.ruby_system.RequestType.LD.latency_hist_seqr |      283813     99.98%     99.98% |          62      0.02%    100.00% |           0      0.00%    100.00% |           0      0.00%    100.00% |           0      0.00%    100.00% |           0      0.00%    100.00% |           0      0.00%    100.00% |           0      0.00%    100.00% |           0      0.00%    100.00% |           2      0.00%    100.00% (Unspecified)
board.cache_hierarchy.ruby_system.RequestType.LD.latency_hist_seqr::total       283877                       (Unspecified)
board.cache_hierarchy.ruby_system.RequestType.LD.hit_latency_hist_seqr::bucket_size            1                       (Unspecified)
board.cache_hierarchy.ruby_system.RequestType.LD.hit_latency_hist_seqr::max_bucket            9                       (Unspecified)
board.cache_hierarchy.ruby_system.RequestType.LD.hit_latency_hist_seqr::samples       250179                       (Unspecified)
board.cache_hierarchy.ruby_system.RequestType.LD.hit_latency_hist_seqr::mean     1.000040                       (Unspecified)
board.cache_hierarchy.ruby_system.RequestType.LD.hit_latency_hist_seqr::gmean     1.000028                       (Unspecified)
board.cache_hierarchy.ruby_system.RequestType.LD.hit_latency_hist_seqr::stdev     0.006322                       (Unspecified)
board.cache_hierarchy.ruby_system.RequestType.LD.hit_latency_hist_seqr |           0      0.00%      0.00% |      250169    100.00%    100.00% |          10      0.00%    100.00% |           0      0.00%    100.00% |           0      0.00%    100.00% |           0      0.00%    100.00% |           0      0.00%    100.00% |           0      0.00%    100.00% |           0      0.00%    100.00% |           0      0.00%    100.00% (Unspecified)
board.cache_hierarchy.ruby_system.RequestType.LD.hit_latency_hist_seqr::total       250179                       (Unspecified)
board.cache_hierarchy.ruby_system.RequestType.LD.miss_latency_hist_seqr::bucket_size          128                       (Unspecified)
board.cache_hierarchy.ruby_system.RequestType.LD.miss_latency_hist_seqr::max_bucket         1279                       (Unspecified)
board.cache_hierarchy.ruby_system.RequestType.LD.miss_latency_hist_seqr::samples        33698                       (Unspecified)
board.cache_hierarchy.ruby_system.RequestType.LD.miss_latency_hist_seqr::mean    21.752033                       (Unspecified)
board.cache_hierarchy.ruby_system.RequestType.LD.miss_latency_hist_seqr::gmean    21.231699                       (Unspecified)
board.cache_hierarchy.ruby_system.RequestType.LD.miss_latency_hist_seqr::stdev    11.933459                       (Unspecified)
board.cache_hierarchy.ruby_system.RequestType.LD.miss_latency_hist_seqr |       33634     99.81%     99.81% |          62      0.18%     99.99% |           0      0.00%     99.99% |           0      0.00%     99.99% |           0      0.00%     99.99% |           0      0.00%     99.99% |           0      0.00%     99.99% |           0      0.00%     99.99% |           0      0.00%     99.99% |           2      0.01%    100.00% (Unspecified)
board.cache_hierarchy.ruby_system.RequestType.LD.miss_latency_hist_seqr::total        33698                       (Unspecified)
board.cache_hierarchy.ruby_system.RequestType.ST.latency_hist_seqr::bucket_size          128                       (Unspecified)
board.cache_hierarchy.ruby_system.RequestType.ST.latency_hist_seqr::max_bucket         1279                       (Unspecified)
board.cache_hierarchy.ruby_system.RequestType.ST.latency_hist_seqr::samples       192898                       (Unspecified)
board.cache_hierarchy.ruby_system.RequestType.ST.latency_hist_seqr::mean     1.575288                       (Unspecified)
board.cache_hierarchy.ruby_system.RequestType.ST.latency_hist_seqr::gmean     1.023789                       (Unspecified)
board.cache_hierarchy.ruby_system.RequestType.ST.latency_hist_seqr::stdev    10.551935                       (Unspecified)
board.cache_hierarchy.ruby_system.RequestType.ST.latency_hist_seqr |      192247     99.66%     99.66% |         646      0.33%    100.00% |           0      0.00%    100.00% |           0      0.00%    100.00% |           0      0.00%    100.00% |           0      0.00%    100.00% |           0      0.00%    100.00% |           0      0.00%    100.00% |           3      0.00%    100.00% |           2      0.00%    100.00% (Unspecified)
board.cache_hierarchy.ruby_system.RequestType.ST.latency_hist_seqr::total       192898                       (Unspecified)
board.cache_hierarchy.ruby_system.RequestType.ST.hit_latency_hist_seqr::bucket_size          128                       (Unspecified)
board.cache_hierarchy.ruby_system.RequestType.ST.hit_latency_hist_seqr::max_bucket         1279                       (Unspecified)
board.cache_hierarchy.ruby_system.RequestType.ST.hit_latency_hist_seqr::samples       191927                       (Unspecified)
board.cache_hierarchy.ruby_system.RequestType.ST.hit_latency_hist_seqr::mean     1.010124                       (Unspecified)
board.cache_hierarchy.ruby_system.RequestType.ST.hit_latency_hist_seqr::gmean     1.001075                       (Unspecified)
[...]
board.processor.cores9.core.executeStats0.numVecAluAccesses            0                       # Number of vector alu accesses (Count)
board.processor.cores9.core.executeStats0.numDiscardedOps            0                       # Number of ops (including micro ops) which were discarded before commit (Count)
board.processor.cores9.core.fetch.predictedBranches        21047                       # Number of branches that fetch has predicted taken (Count)
board.processor.cores9.core.fetch.cycles       647616                       # Number of cycles fetch has run and was not squashing or blocked (Cycle)
board.processor.cores9.core.fetch.squashCycles         4582                       # Number of cycles fetch has spent squashing (Cycle)
board.processor.cores9.core.fetch.miscStallCycles           20                       # Number of cycles fetch has spent waiting on interrupts, or bad addresses, or out of MSHRs (Cycle)
board.processor.cores9.core.fetch.pendingTrapStallCycles          173                       # Number of stall cycles due to pending traps (Cycle)
board.processor.cores9.core.fetch.cacheLines        29559                       # Number of cache lines fetched (Count)
board.processor.cores9.core.fetch.icacheSquashes           81                       # Number of outstanding Icache misses that were squashed (Count)
board.processor.cores9.core.fetch.nisnDist::samples       684327                       # Number of instructions fetched each cycle (Total) (Count)
board.processor.cores9.core.fetch.nisnDist::mean     0.533697                       # Number of instructions fetched each cycle (Total) (Count)
board.processor.cores9.core.fetch.nisnDist::stdev     1.860262                       # Number of instructions fetched each cycle (Total) (Count)
board.processor.cores9.core.fetch.nisnDist::underflows            0      0.00%      0.00% # Number of instructions fetched each cycle (Total) (Count)
board.processor.cores9.core.fetch.nisnDist::0       619160     90.48%     90.48% # Number of instructions fetched each cycle (Total) (Count)
board.processor.cores9.core.fetch.nisnDist::1        12381      1.81%     92.29% # Number of instructions fetched each cycle (Total) (Count)
board.processor.cores9.core.fetch.nisnDist::2         2088      0.31%     92.59% # Number of instructions fetched each cycle (Total) (Count)
board.processor.cores9.core.fetch.nisnDist::3         6235      0.91%     93.50% # Number of instructions fetched each cycle (Total) (Count)
board.processor.cores9.core.fetch.nisnDist::4           84      0.01%     93.51% # Number of instructions fetched each cycle (Total) (Count)
board.processor.cores9.core.fetch.nisnDist::5         2206      0.32%     93.84% # Number of instructions fetched each cycle (Total) (Count)
board.processor.cores9.core.fetch.nisnDist::6         6250      0.91%     94.75% # Number of instructions fetched each cycle (Total) (Count)
board.processor.cores9.core.fetch.nisnDist::7         6289      0.92%     95.67% # Number of instructions fetched each cycle (Total) (Count)
board.processor.cores9.core.fetch.nisnDist::8        29634      4.33%    100.00% # Number of instructions fetched each cycle (Total) (Count)
board.processor.cores9.core.fetch.nisnDist::overflows            0      0.00%    100.00% # Number of instructions fetched each cycle (Total) (Count)
board.processor.cores9.core.fetch.nisnDist::min_value            0                       # Number of instructions fetched each cycle (Total) (Count)
board.processor.cores9.core.fetch.nisnDist::max_value            8                       # Number of instructions fetched each cycle (Total) (Count)
board.processor.cores9.core.fetch.nisnDist::total       684327                       # Number of instructions fetched each cycle (Total) (Count)
board.processor.cores9.core.fetchStats0.numInsts       249099                       # Number of instructions fetched (thread level) (Count)
board.processor.cores9.core.fetchStats0.numOps            0                       # Number of ops (including micro ops) fetched (thread level) (Count)
board.processor.cores9.core.fetchStats0.fetchRate     0.363806                       # Number of inst fetches per cycle ((Count/Cycle))
board.processor.cores9.core.fetchStats0.numBranches        21743                       # Number of branches fetched (Count)
board.processor.cores9.core.fetchStats0.branchRate     0.031755                       # Number of branch fetches per cycle (Ratio)
board.processor.cores9.core.fetchStats0.icacheStallCycles        34227                       # ICache total stall cycles (Cycle)
board.processor.cores9.core.fetchStats0.numFetchSuspends            0                       # Number of times Execute suspended instruction fetching (Count)
board.processor.cores9.core.iew.idleCycles            0                       # Number of cycles IEW is idle (Cycle)
board.processor.cores9.core.iew.squashCycles         2171                       # Number of cycles IEW is squashing (Cycle)
board.processor.cores9.core.iew.blockCycles       561747                       # Number of cycles IEW is blocking (Cycle)
board.processor.cores9.core.iew.unblockCycles         6177                       # Number of cycles IEW is unblocking (Cycle)
board.processor.cores9.core.iew.dispatchedInsts       264359                       # Number of instructions dispatched to IQ (Count)
board.processor.cores9.core.iew.dispSquashedInsts            2                       # Number of squashed instructions skipped by dispatch (Count)
board.processor.cores9.core.iew.dispLoadInsts        72845                       # Number of dispatched load instructions (Count)
board.processor.cores9.core.iew.dispStoreInsts        27398                       # Number of dispatched store instructions (Count)
board.processor.cores9.core.iew.dispNonSpecInsts         4150                       # Number of dispatched non-speculative instructions (Count)
board.processor.cores9.core.iew.iqFullEvents         2077                       # Number of times the IQ has become full, causing a stall (Count)
board.processor.cores9.core.iew.lsqFullEvents            1                       # Number of times the LSQ has become full, causing a stall (Count)
board.processor.cores9.core.iew.memOrderViolationEvents         2054                       # Number of memory order violations (Count)
board.processor.cores9.core.iew.predictedTakenIncorrect            8                       # Number of branches that were predicted taken incorrectly (Count)
board.processor.cores9.core.iew.predictedNotTakenIncorrect          111                       # Number of branches that were predicted not taken incorrectly (Count)
board.processor.cores9.core.iew.branchMispredicts          119                       # Number of branch mispredicts detected at execute (Count)
board.processor.cores9.core.iew.instsToCommit       182728                       # Cumulative count of insts sent to commit (Count)
board.processor.cores9.core.iew.writebackCount       182607                       # Cumulative count of insts written-back (Count)
board.processor.cores9.core.iew.producerInst       133312                       # Number of instructions producing a value (Count)
board.processor.cores9.core.iew.consumerInst       233958                       # Number of instructions consuming a value (Count)
board.processor.cores9.core.iew.wbRate       0.266695                       # Insts written-back per cycle ((Count/Cycle))
board.processor.cores9.core.iew.wbFanout     0.569812                       # Average fanout of values written-back ((Count/Count))
board.processor.cores9.core.interrupts.clk_domain.clock         5328                       # Clock period in ticks (Tick)
board.processor.cores9.core.lsq0.forwLoads         4282                       # Number of loads that had data forwarded from stores (Count)
board.processor.cores9.core.lsq0.squashedLoads        43604                       # Number of loads squashed (Count)
board.processor.cores9.core.lsq0.ignoredResponses            1                       # Number of memory responses ignored because the instruction is squashed (Count)
board.processor.cores9.core.lsq0.memOrderViolation         2054                       # Number of memory ordering violations (Count)
board.processor.cores9.core.lsq0.squashedStores        14668                       # Number of stores squashed (Count)
board.processor.cores9.core.lsq0.rescheduledLoads            0                       # Number of loads that were rescheduled (Count)
board.processor.cores9.core.lsq0.blockedByCache            2                       # Number of times an access to memory failed due to the cache being blocked (Count)
board.processor.cores9.core.lsq0.loadToUse::samples        29241                       # Distribution of cycle latency between the first time a load is issued and its completion (Unspecified)
board.processor.cores9.core.lsq0.loadToUse::mean    21.043056                       # Distribution of cycle latency between the first time a load is issued and its completion (Unspecified)
board.processor.cores9.core.lsq0.loadToUse::stdev    62.034988                       # Distribution of cycle latency between the first time a load is issued and its completion (Unspecified)
board.processor.cores9.core.lsq0.loadToUse::0-9        25077     85.76%     85.76% # Distribution of cycle latency between the first time a load is issued and its completion (Unspecified)
board.processor.cores9.core.lsq0.loadToUse::10-19          134      0.46%     86.22% # Distribution of cycle latency between the first time a load is issued and its completion (Unspecified)
board.processor.cores9.core.lsq0.loadToUse::20-29         1960      6.70%     92.92% # Distribution of cycle latency between the first time a load is issued and its completion (Unspecified)
board.processor.cores9.core.lsq0.loadToUse::30-39           41      0.14%     93.06% # Distribution of cycle latency between the first time a load is issued and its completion (Unspecified)
board.processor.cores9.core.lsq0.loadToUse::40-49            3      0.01%     93.07% # Distribution of cycle latency between the first time a load is issued and its completion (Unspecified)
board.processor.cores9.core.lsq0.loadToUse::50-59            4      0.01%     93.09% # Distribution of cycle latency between the first time a load is issued and its completion (Unspecified)
board.processor.cores9.core.lsq0.loadToUse::60-69           29      0.10%     93.18% # Distribution of cycle latency between the first time a load is issued and its completion (Unspecified)
board.processor.cores9.core.lsq0.loadToUse::80-89            3      0.01%     93.19% # Distribution of cycle latency between the first time a load is issued and its completion (Unspecified)
board.processor.cores9.core.lsq0.loadToUse::90-99           29      0.10%     93.29% # Distribution of cycle latency between the first time a load is issued and its completion (Unspecified)
board.processor.cores9.core.lsq0.loadToUse::100-109            1      0.00%     93.30% # Distribution of cycle latency between the first time a load is issued and its completion (Unspecified)
board.processor.cores9.core.lsq0.loadToUse::110-119            4      0.01%     93.31% # Distribution of cycle latency between the first time a load is issued and its completion (Unspecified)
board.processor.cores9.core.lsq0.loadToUse::120-129           43      0.15%     93.46% # Distribution of cycle latency between the first time a load is issued and its completion (Unspecified)
board.processor.cores9.core.lsq0.loadToUse::140-149            6      0.02%     93.48% # Distribution of cycle latency between the first time a load is issued and its completion (Unspecified)
board.processor.cores9.core.lsq0.loadToUse::150-159           44      0.15%     93.63% # Distribution of cycle latency between the first time a load is issued and its completion (Unspecified)
board.processor.cores9.core.lsq0.loadToUse::160-169            2      0.01%     93.64% # Distribution of cycle latency between the first time a load is issued and its completion (Unspecified)
board.processor.cores9.core.lsq0.loadToUse::170-179           25      0.09%     93.72% # Distribution of cycle latency between the first time a load is issued and its completion (Unspecified)
board.processor.cores9.core.lsq0.loadToUse::180-189           54      0.18%     93.91% # Distribution of cycle latency between the first time a load is issued and its completion (Unspecified)
board.processor.cores9.core.lsq0.loadToUse::190-199            2      0.01%     93.91% # Distribution of cycle latency between the first time a load is issued and its completion (Unspecified)
board.processor.cores9.core.lsq0.loadToUse::200-209           25      0.09%     94.00% # Distribution of cycle latency between the first time a load is issued and its completion (Unspecified)
board.processor.cores9.core.lsq0.loadToUse::210-219           69      0.24%     94.23% # Distribution of cycle latency between the first time a load is issued and its completion (Unspecified)
board.processor.cores9.core.lsq0.loadToUse::220-229            1      0.00%     94.24% # Distribution of cycle latency between the first time a load is issued and its completion (Unspecified)
board.processor.cores9.core.lsq0.loadToUse::230-239           16      0.05%     94.29% # Distribution of cycle latency between the first time a load is issued and its completion (Unspecified)
board.processor.cores9.core.lsq0.loadToUse::240-249           59      0.20%     94.49% # Distribution of cycle latency between the first time a load is issued and its completion (Unspecified)
board.processor.cores9.core.lsq0.loadToUse::250-259          119      0.41%     94.90% # Distribution of cycle latency between the first time a load is issued and its completion (Unspecified)
board.processor.cores9.core.lsq0.loadToUse::260-269         1393      4.76%     99.66% # Distribution of cycle latency between the first time a load is issued and its completion (Unspecified)
board.processor.cores9.core.lsq0.loadToUse::270-279           98      0.34%    100.00% # Distribution of cycle latency between the first time a load is issued and its completion (Unspecified)
board.processor.cores9.core.lsq0.loadToUse::min_value            2                       # Distribution of cycle latency between the first time a load is issued and its completion (Unspecified)
board.processor.cores9.core.lsq0.loadToUse::max_value          273                       # Distribution of cycle latency between the first time a load is issued and its completion (Unspecified)
board.processor.cores9.core.lsq0.loadToUse::total        29241                       # Distribution of cycle latency between the first time a load is issued and its completion (Unspecified)
board.processor.cores9.core.mmu.dtb.rdAccesses        45890                       # TLB accesses on read requests (Count)
board.processor.cores9.core.mmu.dtb.wrAccesses        16984                       # TLB accesses on write requests (Count)
board.processor.cores9.core.mmu.dtb.rdMisses          102                       # TLB misses on read requests (Count)
board.processor.cores9.core.mmu.dtb.wrMisses           13                       # TLB misses on write requests (Count)
board.processor.cores9.core.mmu.dtb.walker.power_state.pwrStateResidencyTicks::UNDEFINED    491906934                       # Cumulative time (in ticks) in various power states (Tick)
board.processor.cores9.core.mmu.itb.rdAccesses            0                       # TLB accesses on read requests (Count)
board.processor.cores9.core.mmu.itb.wrAccesses        29583                       # TLB accesses on write requests (Count)
board.processor.cores9.core.mmu.itb.rdMisses            0                       # TLB misses on read requests (Count)
board.processor.cores9.core.mmu.itb.wrMisses           78                       # TLB misses on write requests (Count)
board.processor.cores9.core.mmu.itb.walker.power_state.pwrStateResidencyTicks::UNDEFINED    491906934                       # Cumulative time (in ticks) in various power states (Tick)
board.processor.cores9.core.power_state.pwrStateResidencyTicks::ON    491906934                       # Cumulative time (in ticks) in various power states (Tick)
board.processor.cores9.core.rename.squashCycles         2171                       # Number of cycles rename is squashing (Cycle)
board.processor.cores9.core.rename.idleCycles        23921                       # Number of cycles rename is idle (Cycle)
board.processor.cores9.core.rename.blockCycles       596696                       # Number of cycles rename is blocking (Cycle)
board.processor.cores9.core.rename.serializeStallCycles            0                       # count of cycles rename stalled for serializing inst (Cycle)
board.processor.cores9.core.rename.runCycles        36122                       # Number of cycles rename is running (Cycle)
board.processor.cores9.core.rename.unblockCycles        25417                       # Number of cycles rename is unblocking (Cycle)
board.processor.cores9.core.rename.renamedInsts       281098                       # Number of instructions processed by rename (Count)
board.processor.cores9.core.rename.ROBFullEvents            1                       # Number of times rename has blocked due to ROB full (Count)
board.processor.cores9.core.rename.IQFullEvents        20632                       # Number of times rename has blocked due to IQ full (Count)
board.processor.cores9.core.rename.LQFullEvents          112                       # Number of times rename has blocked due to LQ full (Count)
board.processor.cores9.core.rename.SQFullEvents          563                       # Number of times rename has blocked due to SQ full (Count)
board.processor.cores9.core.rename.renamedOperands       374921                       # Number of destination operands rename has renamed (Count)
board.processor.cores9.core.rename.lookups       855532                       # Number of register rename lookups that rename has made (Count)
board.processor.cores9.core.rename.intLookups       401570                       # Number of integer rename lookups (Count)
board.processor.cores9.core.rename.fpLookups           26                       # Number of floating rename lookups (Count)
board.processor.cores9.core.rename.committedMaps       147190                       # Number of HB maps that are committed (Count)
board.processor.cores9.core.rename.undoneMaps       227731                       # Number of HB maps that are undone due to squashing (Count)
board.processor.cores9.core.rename.serializing            0                       # count of serializing insts renamed (Count)
board.processor.cores9.core.rename.tempSerializing            0                       # count of temporary serializing insts renamed (Count)
board.processor.cores9.core.rename.skidInsts        45665                       # count of insts added to the skid buffer (Count)
board.processor.cores9.core.rob.reads          925091                       # The number of ROB reads (Count)
board.processor.cores9.core.rob.writes         549309                       # The number of ROB writes (Count)
board.processor.cores9.core.thread_0.numInsts        71595                       # Number of Instructions committed (Count)
board.processor.cores9.core.thread_0.numOps       108615                       # Number of Ops committed (Count)
board.processor.cores9.core.thread_0.numMemRefs            0                       # Number of Memory References (Count)
board.workload.inst.arm                             0                       # number of arm instructions executed (Count)
board.workload.inst.quiesce                         0                       # number of quiesce instructions executed (Count)

---------- End Simulation Statistics   ----------
