
---------- Begin Simulation Statistics ----------
simSeconds                                   0.000115                       # Number of seconds simulated (Second)
simTicks                                    115123095                       # Number of ticks simulated (Tick)
finalTick                                   340176816                       # Number of ticks from beginning of simulation (restored from checkpoints and never reset) (Tick)
simFreq                                  1000000000000                       # The number of ticks per simulated second ((Tick/Second))
hostSeconds                                     29.65                       # Real time elapsed on the host (Second)
hostTickRate                                  3882628                       # The number of ticks simulated per host second (ticks/s) ((Tick/Second))
hostMemory                                    1755516                       # Number of bytes of host memory used (Byte)
simInsts                                      1699192                       # Number of instructions simulated (Count)
simOps                                        2630439                       # Number of ops (including micro ops) simulated (Count)
hostInstRate                                    57307                       # Simulator instruction rate (inst/s) ((Count/Second))
hostOpRate                                      88714                       # Simulator op (including micro ops) rate (op/s) ((Count/Second))
board.cache_hierarchy.ruby_system.delayHistogram::bucket_size            8                       # delay histogram for all message (Unspecified)
board.cache_hierarchy.ruby_system.delayHistogram::max_bucket           79                       # delay histogram for all message (Unspecified)
board.cache_hierarchy.ruby_system.delayHistogram::samples        89484                       # delay histogram for all message (Unspecified)
board.cache_hierarchy.ruby_system.delayHistogram::mean     0.641232                       # delay histogram for all message (Unspecified)
board.cache_hierarchy.ruby_system.delayHistogram::stdev     2.506953                       # delay histogram for all message (Unspecified)
board.cache_hierarchy.ruby_system.delayHistogram |       84564     94.50%     94.50% |        4504      5.03%     99.54% |         351      0.39%     99.93% |          42      0.05%     99.97% |          13      0.01%     99.99% |           5      0.01%     99.99% |           4      0.00%    100.00% |           1      0.00%    100.00% |           0      0.00%    100.00% |           0      0.00%    100.00% # delay histogram for all message (Unspecified)
board.cache_hierarchy.ruby_system.delayHistogram::total        89484                       # delay histogram for all message (Unspecified)
board.cache_hierarchy.ruby_system.m_outstandReqHistSeqr::bucket_size            2                       (Unspecified)
board.cache_hierarchy.ruby_system.m_outstandReqHistSeqr::max_bucket           19                       (Unspecified)
board.cache_hierarchy.ruby_system.m_outstandReqHistSeqr::samples      1102941                       (Unspecified)
board.cache_hierarchy.ruby_system.m_outstandReqHistSeqr::mean     1.222054                       (Unspecified)
board.cache_hierarchy.ruby_system.m_outstandReqHistSeqr::gmean     1.160332                       (Unspecified)
board.cache_hierarchy.ruby_system.m_outstandReqHistSeqr::stdev     0.482108                       (Unspecified)
board.cache_hierarchy.ruby_system.m_outstandReqHistSeqr |      873925     79.24%     79.24% |      225785     20.47%     99.71% |        2634      0.24%     99.95% |         277      0.03%     99.97% |         120      0.01%     99.98% |          91      0.01%     99.99% |          69      0.01%    100.00% |          36      0.00%    100.00% |           4      0.00%    100.00% |           0      0.00%    100.00% (Unspecified)
board.cache_hierarchy.ruby_system.m_outstandReqHistSeqr::total      1102941                       (Unspecified)
board.cache_hierarchy.ruby_system.m_latencyHistSeqr::bucket_size          128                       (Unspecified)
board.cache_hierarchy.ruby_system.m_latencyHistSeqr::max_bucket         1279                       (Unspecified)
board.cache_hierarchy.ruby_system.m_latencyHistSeqr::samples      1103250                       (Unspecified)
board.cache_hierarchy.ruby_system.m_latencyHistSeqr::mean     1.865820                       (Unspecified)
board.cache_hierarchy.ruby_system.m_latencyHistSeqr::gmean     1.113804                       (Unspecified)
board.cache_hierarchy.ruby_system.m_latencyHistSeqr::stdev     7.406196                       (Unspecified)
board.cache_hierarchy.ruby_system.m_latencyHistSeqr |     1102097     99.90%     99.90% |        1136      0.10%    100.00% |           4      0.00%    100.00% |           0      0.00%    100.00% |           0      0.00%    100.00% |           0      0.00%    100.00% |           1      0.00%    100.00% |           0      0.00%    100.00% |           3      0.00%    100.00% |           9      0.00%    100.00% (Unspecified)
board.cache_hierarchy.ruby_system.m_latencyHistSeqr::total      1103250                       (Unspecified)
board.cache_hierarchy.ruby_system.m_hitLatencyHistSeqr::bucket_size          128                       (Unspecified)
board.cache_hierarchy.ruby_system.m_hitLatencyHistSeqr::max_bucket         1279                       (Unspecified)
board.cache_hierarchy.ruby_system.m_hitLatencyHistSeqr::samples      1065294                       (Unspecified)
board.cache_hierarchy.ruby_system.m_hitLatencyHistSeqr::mean     1.001802                       (Unspecified)
board.cache_hierarchy.ruby_system.m_hitLatencyHistSeqr::gmean     1.000220                       (Unspecified)
board.cache_hierarchy.ruby_system.m_hitLatencyHistSeqr::stdev     1.205497                       (Unspecified)
board.cache_hierarchy.ruby_system.m_hitLatencyHistSeqr |     1065292    100.00%    100.00% |           1      0.00%    100.00% |           0      0.00%    100.00% |           0      0.00%    100.00% |           0      0.00%    100.00% |           0      0.00%    100.00% |           0      0.00%    100.00% |           0      0.00%    100.00% |           0      0.00%    100.00% |           1      0.00%    100.00% (Unspecified)
board.cache_hierarchy.ruby_system.m_hitLatencyHistSeqr::total      1065294                       (Unspecified)
board.cache_hierarchy.ruby_system.m_missLatencyHistSeqr::bucket_size          128                       (Unspecified)
board.cache_hierarchy.ruby_system.m_missLatencyHistSeqr::max_bucket         1279                       (Unspecified)
board.cache_hierarchy.ruby_system.m_missLatencyHistSeqr::samples        37956                       (Unspecified)
board.cache_hierarchy.ruby_system.m_missLatencyHistSeqr::mean    26.115818                       (Unspecified)
board.cache_hierarchy.ruby_system.m_missLatencyHistSeqr::gmean    22.797786                       (Unspecified)
board.cache_hierarchy.ruby_system.m_missLatencyHistSeqr::stdev    30.733896                       (Unspecified)
board.cache_hierarchy.ruby_system.m_missLatencyHistSeqr |       36805     96.97%     96.97% |        1135      2.99%     99.96% |           4      0.01%     99.97% |           0      0.00%     99.97% |           0      0.00%     99.97% |           0      0.00%     99.97% |           1      0.00%     99.97% |           0      0.00%     99.97% |           3      0.01%     99.98% |           8      0.02%    100.00% (Unspecified)
board.cache_hierarchy.ruby_system.m_missLatencyHistSeqr::total        37956                       (Unspecified)
board.cache_hierarchy.ruby_system.delayVCHist.vnet_0::bucket_size            8                       # delay histogram for vnet_0 (Unspecified)
board.cache_hierarchy.ruby_system.delayVCHist.vnet_0::max_bucket           79                       # delay histogram for vnet_0 (Unspecified)
board.cache_hierarchy.ruby_system.delayVCHist.vnet_0::samples        44243                       # delay histogram for vnet_0 (Unspecified)
board.cache_hierarchy.ruby_system.delayVCHist.vnet_0::mean     0.673779                       # delay histogram for vnet_0 (Unspecified)
board.cache_hierarchy.ruby_system.delayVCHist.vnet_0::stdev     2.637549                       # delay histogram for vnet_0 (Unspecified)
board.cache_hierarchy.ruby_system.delayVCHist.vnet_0 |       41952     94.82%     94.82% |        2057      4.65%     99.47% |         209      0.47%     99.94% |          18      0.04%     99.98% |           2      0.00%     99.99% |           2      0.00%     99.99% |           2      0.00%    100.00% |           1      0.00%    100.00% |           0      0.00%    100.00% |           0      0.00%    100.00% # delay histogram for vnet_0 (Unspecified)
board.cache_hierarchy.ruby_system.delayVCHist.vnet_0::total        44243                       # delay histogram for vnet_0 (Unspecified)
board.cache_hierarchy.ruby_system.delayVCHist.vnet_1::bucket_size            8                       # delay histogram for vnet_1 (Unspecified)
board.cache_hierarchy.ruby_system.delayVCHist.vnet_1::max_bucket           79                       # delay histogram for vnet_1 (Unspecified)
board.cache_hierarchy.ruby_system.delayVCHist.vnet_1::samples        42353                       # delay histogram for vnet_1 (Unspecified)
board.cache_hierarchy.ruby_system.delayVCHist.vnet_1::mean     0.650863                       # delay histogram for vnet_1 (Unspecified)
board.cache_hierarchy.ruby_system.delayVCHist.vnet_1::stdev     2.445893                       # delay histogram for vnet_1 (Unspecified)
board.cache_hierarchy.ruby_system.delayVCHist.vnet_1 |       39724     93.79%     93.79% |        2447      5.78%     99.57% |         142      0.34%     99.91% |          24      0.06%     99.96% |          11      0.03%     99.99% |           3      0.01%    100.00% |           2      0.00%    100.00% |           0      0.00%    100.00% |           0      0.00%    100.00% |           0      0.00%    100.00% # delay histogram for vnet_1 (Unspecified)
board.cache_hierarchy.ruby_system.delayVCHist.vnet_1::total        42353                       # delay histogram for vnet_1 (Unspecified)
board.cache_hierarchy.ruby_system.delayVCHist.vnet_2::bucket_size            1                       # delay histogram for vnet_2 (Unspecified)
board.cache_hierarchy.ruby_system.delayVCHist.vnet_2::max_bucket            9                       # delay histogram for vnet_2 (Unspecified)
board.cache_hierarchy.ruby_system.delayVCHist.vnet_2::samples         2888                       # delay histogram for vnet_2 (Unspecified)
board.cache_hierarchy.ruby_system.delayVCHist.vnet_2::mean     0.001385                       # delay histogram for vnet_2 (Unspecified)
board.cache_hierarchy.ruby_system.delayVCHist.vnet_2::stdev     0.052622                       # delay histogram for vnet_2 (Unspecified)
board.cache_hierarchy.ruby_system.delayVCHist.vnet_2 |        2886     99.93%     99.93% |           0      0.00%     99.93% |           2      0.07%    100.00% |           0      0.00%    100.00% |           0      0.00%    100.00% |           0      0.00%    100.00% |           0      0.00%    100.00% |           0      0.00%    100.00% |           0      0.00%    100.00% |           0      0.00%    100.00% # delay histogram for vnet_2 (Unspecified)
board.cache_hierarchy.ruby_system.delayVCHist.vnet_2::total         2888                       # delay histogram for vnet_2 (Unspecified)
board.cache_hierarchy.ruby_system.Directory_Controller.Fetch         1150      0.00%      0.00% (Unspecified)
board.cache_hierarchy.ruby_system.Directory_Controller.Memory_Data         1150      0.00%      0.00% (Unspecified)
board.cache_hierarchy.ruby_system.Directory_Controller.I.Fetch         1150      0.00%      0.00% (Unspecified)
board.cache_hierarchy.ruby_system.Directory_Controller.IM.Memory_Data         1150      0.00%      0.00% (Unspecified)
board.cache_hierarchy.ruby_system.L1Cache_Controller.Load |       13429      4.73%      4.73% |       16932      5.96%     10.70% |       16895      5.95%     16.65% |       16922      5.96%     22.61% |       16904      5.95%     28.56% |       16906      5.96%     34.52% |       16894      5.95%     40.47% |       16913      5.96%     46.43% |       16894      5.95%     52.38% |       16914      5.96%     58.34% |       16890      5.95%     64.29% |       16894      5.95%     70.24% |       16895      5.95%     76.19% |       16896      5.95%     82.14% |       16898      5.95%     88.10% |       16894      5.95%     94.05% |       16893      5.95%    100.00% (Unspecified)
board.cache_hierarchy.ruby_system.L1Cache_Controller.Load::total       283863                       (Unspecified)
board.cache_hierarchy.ruby_system.L1Cache_Controller.Ifetch |       20799      3.72%      3.72% |       33567      6.01%      9.73% |       33568      6.01%     15.74% |       33780      6.05%     21.79% |       33762      6.04%     27.83% |       33754      6.04%     33.87% |       33578      6.01%     39.88% |       33598      6.01%     45.90% |       33583      6.01%     51.91% |       33598      6.01%     57.92% |       33579      6.01%     63.93% |       33586      6.01%     69.94% |       33580      6.01%     75.96% |       33582      6.01%     81.97% |       33585      6.01%     87.98% |       33580      6.01%     93.99% |       33578      6.01%    100.00% (Unspecified)
board.cache_hierarchy.ruby_system.L1Cache_Controller.Ifetch::total       558657                       (Unspecified)
board.cache_hierarchy.ruby_system.L1Cache_Controller.Store |       22849      8.76%      8.76% |       15085      5.79%     14.55% |       14793      5.67%     20.22% |       15097      5.79%     26.01% |       15093      5.79%     31.80% |       15089      5.79%     37.59% |       14793      5.67%     43.26% |       14793      5.67%     48.94% |       14793      5.67%     54.61% |       14793      5.67%     60.28% |       14793      5.67%     65.96% |       14793      5.67%     71.63% |       14793      5.67%     77.31% |       14793      5.67%     82.98% |       14793      5.67%     88.65% |       14793      5.67%     94.33% |       14793      5.67%    100.00% (Unspecified)
board.cache_hierarchy.ruby_system.L1Cache_Controller.Store::total       260729                       (Unspecified)
board.cache_hierarchy.ruby_system.L1Cache_Controller.Inv |          94     36.02%     36.02% |          10      3.83%     39.85% |          11      4.21%     44.06% |          15      5.75%     49.81% |          15      5.75%     55.56% |          19      7.28%     62.84% |           9      3.45%     66.28% |          10      3.83%     70.11% |           9      3.45%     73.56% |          11      4.21%     77.78% |          11      4.21%     81.99% |          11      4.21%     86.21% |          12      4.60%     90.80% |           9      3.45%     94.25% |           8      3.07%     97.32% |           7      2.68%    100.00% |           0      0.00%    100.00% (Unspecified)
board.cache_hierarchy.ruby_system.L1Cache_Controller.Inv::total          261                       (Unspecified)
board.cache_hierarchy.ruby_system.L1Cache_Controller.L1_Replacement |         862      3.22%      3.22% |        1638      6.12%      9.34% |        1611      6.02%     15.35% |        1640      6.13%     21.48% |        1642      6.13%     27.61% |        1643      6.14%     33.75% |        1612      6.02%     39.77% |        1615      6.03%     45.80% |        1610      6.01%     51.82% |        1613      6.02%     57.84% |        1610      6.01%     63.85% |        1614      6.03%     69.88% |        1613      6.02%     75.91% |        1614      6.03%     81.93% |        1614      6.03%     87.96% |        1612      6.02%     93.98% |        1611      6.02%    100.00% (Unspecified)
board.cache_hierarchy.ruby_system.L1Cache_Controller.L1_Replacement::total        26774                       (Unspecified)
board.cache_hierarchy.ruby_system.L1Cache_Controller.Fwd_GETX |          37     17.45%     17.45% |          13      6.13%     23.58% |          16      7.55%     31.13% |           2      0.94%     32.08% |           5      2.36%     34.43% |          14      6.60%     41.04% |           3      1.42%     42.45% |          13      6.13%     48.58% |          13      6.13%     54.72% |          13      6.13%     60.85% |          13      6.13%     66.98% |          13      6.13%     73.11% |          13      6.13%     79.25% |          14      6.60%     85.85% |          14      6.60%     92.45% |          14      6.60%     99.06% |           2      0.94%    100.00% (Unspecified)
board.cache_hierarchy.ruby_system.L1Cache_Controller.Fwd_GETX::total          212                       (Unspecified)
board.cache_hierarchy.ruby_system.L1Cache_Controller.Fwd_GETS |         424     17.56%     17.56% |        1814     75.11%     92.67% |          12      0.50%     93.17% |          15      0.62%     93.79% |          11      0.46%     94.24% |          18      0.75%     94.99% |          10      0.41%     95.40% |          13      0.54%     95.94% |          12      0.50%     96.44% |          12      0.50%     96.94% |          12      0.50%     97.43% |          12      0.50%     97.93% |          13      0.54%     98.47% |          11      0.46%     98.92% |          11      0.46%     99.38% |          11      0.46%     99.83% |           4      0.17%    100.00% (Unspecified)
board.cache_hierarchy.ruby_system.L1Cache_Controller.Fwd_GETS::total         2415                       (Unspecified)
board.cache_hierarchy.ruby_system.L1Cache_Controller.Data |           0      0.00%      0.00% |           0      0.00%      0.00% |           0      0.00%      0.00% |           1     16.67%     16.67% |           3     50.00%     66.67% |           1     16.67%     83.33% |           1     16.67%    100.00% |           0      0.00%    100.00% |           0      0.00%    100.00% |           0      0.00%    100.00% |           0      0.00%    100.00% |           0      0.00%    100.00% |           0      0.00%    100.00% |           0      0.00%    100.00% |           0      0.00%    100.00% |           0      0.00%    100.00% |           0      0.00%    100.00% (Unspecified)
board.cache_hierarchy.ruby_system.L1Cache_Controller.Data::total            6                       (Unspecified)
board.cache_hierarchy.ruby_system.L1Cache_Controller.Data_Exclusive |          65      3.12%      3.12% |        1814     87.00%     90.12% |          15      0.72%     90.84% |          14      0.67%     91.51% |          16      0.77%     92.28% |          13      0.62%     92.90% |          14      0.67%     93.57% |          13      0.62%     94.20% |          13      0.62%     94.82% |          12      0.58%     95.40% |          13      0.62%     96.02% |          13      0.62%     96.64% |          14      0.67%     97.31% |          13      0.62%     97.94% |          16      0.77%     98.71% |          14      0.67%     99.38% |          13      0.62%    100.00% (Unspecified)
board.cache_hierarchy.ruby_system.L1Cache_Controller.Data_Exclusive::total         2085                       (Unspecified)
board.cache_hierarchy.ruby_system.L1Cache_Controller.DataS_fromL1 |          67      2.77%      2.77% |         272     11.26%     14.04% |        1820     75.36%     89.40% |          18      0.75%     90.14% |          19      0.79%     90.93% |          18      0.75%     91.68% |          20      0.83%     92.51% |          19      0.79%     93.29% |          18      0.75%     94.04% |          17      0.70%     94.74% |          18      0.75%     95.49% |          18      0.75%     96.23% |          18      0.75%     96.98% |          19      0.79%     97.76% |          18      0.75%     98.51% |          18      0.75%     99.25% |          18      0.75%    100.00% (Unspecified)
board.cache_hierarchy.ruby_system.L1Cache_Controller.DataS_fromL1::total         2415                       (Unspecified)
board.cache_hierarchy.ruby_system.L1Cache_Controller.Data_all_Acks |         773      2.33%      2.33% |         247      0.74%      3.07% |         454      1.37%      4.44% |        2321      6.98%     11.42% |        2318      6.98%     18.40% |        2320      6.98%     25.38% |        2256      6.79%     32.17% |        2260      6.80%     38.97% |        2251      6.77%     45.74% |        2259      6.80%     52.54% |        2251      6.77%     59.32% |        2255      6.79%     66.10% |        2254      6.78%     72.89% |        2254      6.78%     79.67% |        2252      6.78%     86.45% |        2252      6.78%     93.22% |        2252      6.78%    100.00% (Unspecified)
board.cache_hierarchy.ruby_system.L1Cache_Controller.Data_all_Acks::total        33229                       (Unspecified)
board.cache_hierarchy.ruby_system.L1Cache_Controller.Ack |          28     10.98%     10.98% |           9      3.53%     14.51% |          20      7.84%     22.35% |          14      5.49%     27.84% |          15      5.88%     33.73% |          16      6.27%     40.00% |          15      5.88%     45.88% |          13      5.10%     50.98% |          14      5.49%     56.47% |          13      5.10%     61.57% |          14      5.49%     67.06% |          14      5.49%     72.55% |          14      5.49%     78.04% |          14      5.49%     83.53% |          14      5.49%     89.02% |          14      5.49%     94.51% |          14      5.49%    100.00% (Unspecified)
board.cache_hierarchy.ruby_system.L1Cache_Controller.Ack::total          255                       (Unspecified)
board.cache_hierarchy.ruby_system.L1Cache_Controller.Ack_all |          23     10.13%     10.13% |           9      3.96%     14.10% |          15      6.61%     20.70% |          12      5.29%     25.99% |          12      5.29%     31.28% |          13      5.73%     37.00% |          14      6.17%     43.17% |          13      5.73%     48.90% |          13      5.73%     54.63% |          12      5.29%     59.91% |          13      5.73%     65.64% |          13      5.73%     71.37% |          13      5.73%     77.09% |          13      5.73%     82.82% |          13      5.73%     88.55% |          13      5.73%     94.27% |          13      5.73%    100.00% (Unspecified)
board.cache_hierarchy.ruby_system.L1Cache_Controller.Ack_all::total          227                       (Unspecified)
board.cache_hierarchy.ruby_system.L1Cache_Controller.WB_Ack |         349     61.12%     61.12% |          14      2.45%     63.57% |          14      2.45%     66.02% |          14      2.45%     68.48% |          14      2.45%     70.93% |          14      2.45%     73.38% |          14      2.45%     75.83% |          14      2.45%     78.28% |          13      2.28%     80.56% |          13      2.28%     82.84% |          14      2.45%     85.29% |          14      2.45%     87.74% |          14      2.45%     90.19% |          14      2.45%     92.64% |          14      2.45%     95.10% |          14      2.45%     97.55% |          14      2.45%    100.00% (Unspecified)
board.cache_hierarchy.ruby_system.L1Cache_Controller.WB_Ack::total          571                       (Unspecified)
board.cache_hierarchy.ruby_system.L1Cache_Controller.NP.Load |         126      0.37%      0.37% |        2088      6.21%      6.58% |        2096      6.23%     12.81% |        2090      6.21%     19.02% |        2093      6.22%     25.24% |        2092      6.22%     31.46% |        2095      6.23%     37.69% |        2097      6.23%     43.92% |        2095      6.23%     50.15% |        2095      6.23%     56.37% |        2094      6.22%     62.60% |        2098      6.24%     68.83% |        2097      6.23%     75.06% |        2098      6.24%     81.30% |        2100      6.24%     87.54% |        2097      6.23%     93.77% |        2095      6.23%    100.00% (Unspecified)
board.cache_hierarchy.ruby_system.L1Cache_Controller.NP.Load::total        33646                       (Unspecified)
board.cache_hierarchy.ruby_system.L1Cache_Controller.NP.Ifetch |         341     11.28%     11.28% |         183      6.05%     17.33% |         161      5.32%     22.65% |         191      6.32%     28.97% |         190      6.28%     35.25% |         188      6.22%     41.47% |         161      5.32%     46.79% |         165      5.46%     52.25% |         160      5.29%     57.54% |         164      5.42%     62.96% |         160      5.29%     68.25% |         160      5.29%     73.54% |         160      5.29%     78.84% |         160      5.29%     84.13% |         160      5.29%     89.42% |         160      5.29%     94.71% |         160      5.29%    100.00% (Unspecified)
board.cache_hierarchy.ruby_system.L1Cache_Controller.NP.Ifetch::total         3024                       (Unspecified)
board.cache_hierarchy.ruby_system.L1Cache_Controller.NP.Store |         395     40.47%     40.47% |          62      6.35%     46.82% |          27      2.77%     49.59% |          62      6.35%     55.94% |          61      6.25%     62.19% |          62      6.35%     68.55% |          29      2.97%     71.52% |          29      2.97%     74.49% |          27      2.77%     77.25% |          29      2.97%     80.23% |          28      2.87%     83.09% |          28      2.87%     85.96% |          28      2.87%     88.83% |          28      2.87%     91.70% |          26      2.66%     94.36% |          27      2.77%     97.13% |          28      2.87%    100.00% (Unspecified)
board.cache_hierarchy.ruby_system.L1Cache_Controller.NP.Store::total          976                       (Unspecified)
board.cache_hierarchy.ruby_system.L1Cache_Controller.NP.Inv |          10    100.00%    100.00% |           0      0.00%    100.00% |           0      0.00%    100.00% |           0      0.00%    100.00% |           0      0.00%    100.00% |           0      0.00%    100.00% |           0      0.00%    100.00% |           0      0.00%    100.00% |           0      0.00%    100.00% |           0      0.00%    100.00% |           0      0.00%    100.00% |           0      0.00%    100.00% |           0      0.00%    100.00% |           0      0.00%    100.00% |           0      0.00%    100.00% |           0      0.00%    100.00% |           0      0.00%    100.00% (Unspecified)
board.cache_hierarchy.ruby_system.L1Cache_Controller.NP.Inv::total           10                       (Unspecified)
board.cache_hierarchy.ruby_system.L1Cache_Controller.I.Load |          37     53.62%     53.62% |           0      0.00%     53.62% |           4      5.80%     59.42% |           7     10.14%     69.57% |           8     11.59%     81.16% |           7     10.14%     91.30% |           4      5.80%     97.10% |           1      1.45%     98.55% |           0      0.00%     98.55% |           0      0.00%     98.55% |           0      0.00%     98.55% |           0      0.00%     98.55% |           1      1.45%    100.00% |           0      0.00%    100.00% |           0      0.00%    100.00% |           0      0.00%    100.00% |           0      0.00%    100.00% (Unspecified)
board.cache_hierarchy.ruby_system.L1Cache_Controller.I.Load::total           69                       (Unspecified)
board.cache_hierarchy.ruby_system.L1Cache_Controller.I.Store |           5     33.33%     33.33% |           0      0.00%     33.33% |           1      6.67%     40.00% |           4     26.67%     66.67% |           2     13.33%     80.00% |           2     13.33%     93.33% |           1      6.67%    100.00% |           0      0.00%    100.00% |           0      0.00%    100.00% |           0      0.00%    100.00% |           0      0.00%    100.00% |           0      0.00%    100.00% |           0      0.00%    100.00% |           0      0.00%    100.00% |           0      0.00%    100.00% |           0      0.00%    100.00% |           0      0.00%    100.00% (Unspecified)
board.cache_hierarchy.ruby_system.L1Cache_Controller.I.Store::total           15                       (Unspecified)
board.cache_hierarchy.ruby_system.L1Cache_Controller.I.L1_Replacement |          57     96.61%     96.61% |           0      0.00%     96.61% |           0      0.00%     96.61% |           0      0.00%     96.61% |           0      0.00%     96.61% |           1      1.69%     98.31% |           0      0.00%     98.31% |           0      0.00%     98.31% |           0      0.00%     98.31% |           1      1.69%    100.00% |           0      0.00%    100.00% |           0      0.00%    100.00% |           0      0.00%    100.00% |           0      0.00%    100.00% |           0      0.00%    100.00% |           0      0.00%    100.00% |           0      0.00%    100.00% (Unspecified)
board.cache_hierarchy.ruby_system.L1Cache_Controller.I.L1_Replacement::total           59                       (Unspecified)
board.cache_hierarchy.ruby_system.L1Cache_Controller.S.Load |         484     29.00%     29.00% |          63      3.77%     32.77% |          87      5.21%     37.99% |          77      4.61%     42.60% |          77      4.61%     47.21% |          72      4.31%     51.53% |          80      4.79%     56.32% |          97      5.81%     62.13% |          73      4.37%     66.51% |          75      4.49%     71.00% |          71      4.25%     75.25% |          68      4.07%     79.33% |          69      4.13%     83.46% |          68      4.07%     87.54% |          69      4.13%     91.67% |          69      4.13%     95.81% |          70      4.19%    100.00% (Unspecified)
board.cache_hierarchy.ruby_system.L1Cache_Controller.S.Load::total         1669                       (Unspecified)
board.cache_hierarchy.ruby_system.L1Cache_Controller.S.Ifetch |       20458      3.68%      3.68% |       33384      6.01%      9.69% |       33407      6.01%     15.70% |       33589      6.05%     21.75% |       33572      6.04%     27.79% |       33566      6.04%     33.83% |       33417      6.01%     39.85% |       33433      6.02%     45.86% |       33423      6.02%     51.88% |       33434      6.02%     57.89% |       33419      6.01%     63.91% |       33426      6.02%     69.93% |       33420      6.01%     75.94% |       33422      6.02%     81.96% |       33425      6.02%     87.97% |       33420      6.01%     93.99% |       33418      6.01%    100.00% (Unspecified)
board.cache_hierarchy.ruby_system.L1Cache_Controller.S.Ifetch::total       555633                       (Unspecified)
board.cache_hierarchy.ruby_system.L1Cache_Controller.S.Store |          23     10.22%     10.22% |           9      4.00%     14.22% |          15      6.67%     20.89% |          11      4.89%     25.78% |          11      4.89%     30.67% |          13      5.78%     36.44% |          14      6.22%     42.67% |          13      5.78%     48.44% |          13      5.78%     54.22% |          12      5.33%     59.56% |          13      5.78%     65.33% |          13      5.78%     71.11% |          13      5.78%     76.89% |          13      5.78%     82.67% |          13      5.78%     88.44% |          13      5.78%     94.22% |          13      5.78%    100.00% (Unspecified)
board.cache_hierarchy.ruby_system.L1Cache_Controller.S.Store::total          225                       (Unspecified)
board.cache_hierarchy.ruby_system.L1Cache_Controller.S.Inv |          84     34.15%     34.15% |          10      4.07%     38.21% |          11      4.47%     42.68% |          15      6.10%     48.78% |          13      5.28%     54.07% |          18      7.32%     61.38% |           7      2.85%     64.23% |          10      4.07%     68.29% |           9      3.66%     71.95% |          11      4.47%     76.42% |          11      4.47%     80.89% |          11      4.47%     85.37% |          12      4.88%     90.24% |           9      3.66%     93.90% |           8      3.25%     97.15% |           7      2.85%    100.00% |           0      0.00%    100.00% (Unspecified)
board.cache_hierarchy.ruby_system.L1Cache_Controller.S.Inv::total          246                       (Unspecified)
board.cache_hierarchy.ruby_system.L1Cache_Controller.S.L1_Replacement |         456      1.74%      1.74% |        1624      6.21%      7.96% |        1597      6.11%     14.06% |        1626      6.22%     20.28% |        1628      6.23%     26.51% |        1628      6.23%     32.74% |        1598      6.11%     38.85% |        1601      6.12%     44.97% |        1597      6.11%     51.08% |        1599      6.12%     57.20% |        1596      6.10%     63.30% |        1600      6.12%     69.42% |        1599      6.12%     75.54% |        1600      6.12%     81.66% |        1600      6.12%     87.78% |        1598      6.11%     93.89% |        1597      6.11%    100.00% (Unspecified)
board.cache_hierarchy.ruby_system.L1Cache_Controller.S.L1_Replacement::total        26144                       (Unspecified)
board.cache_hierarchy.ruby_system.L1Cache_Controller.E.Load |        1379     90.90%     90.90% |          12      0.79%     91.69% |           8      0.53%     92.22% |           9      0.59%     92.81% |          11      0.73%     93.54% |           9      0.59%     94.13% |          12      0.79%     94.92% |           8      0.53%     95.45% |           8      0.53%     95.98% |           5      0.33%     96.31% |           8      0.53%     96.84% |           8      0.53%     97.36% |           8      0.53%     97.89% |           8      0.53%     98.42% |           8      0.53%     98.95% |           8      0.53%     99.47% |           8      0.53%    100.00% (Unspecified)
board.cache_hierarchy.ruby_system.L1Cache_Controller.E.Load::total         1517                       (Unspecified)
board.cache_hierarchy.ruby_system.L1Cache_Controller.E.Store |          27     16.88%     16.88% |           8      5.00%     21.88% |           9      5.62%     27.50% |           8      5.00%     32.50% |          10      6.25%     38.75% |           8      5.00%     43.75% |           8      5.00%     48.75% |           8      5.00%     53.75% |           8      5.00%     58.75% |           7      4.38%     63.12% |           8      5.00%     68.12% |           8      5.00%     73.12% |           8      5.00%     78.13% |           8      5.00%     83.13% |          10      6.25%     89.38% |           9      5.62%     95.00% |           8      5.00%    100.00% (Unspecified)
board.cache_hierarchy.ruby_system.L1Cache_Controller.E.Store::total          160                       (Unspecified)
board.cache_hierarchy.ruby_system.L1Cache_Controller.E.L1_Replacement |          11     40.74%     40.74% |           1      3.70%     44.44% |           1      3.70%     48.15% |           1      3.70%     51.85% |           1      3.70%     55.56% |           1      3.70%     59.26% |           1      3.70%     62.96% |           1      3.70%     66.67% |           1      3.70%     70.37% |           1      3.70%     74.07% |           1      3.70%     77.78% |           1      3.70%     81.48% |           1      3.70%     85.19% |           1      3.70%     88.89% |           1      3.70%     92.59% |           1      3.70%     96.30% |           1      3.70%    100.00% (Unspecified)
board.cache_hierarchy.ruby_system.L1Cache_Controller.E.L1_Replacement::total           27                       (Unspecified)
board.cache_hierarchy.ruby_system.L1Cache_Controller.E.Fwd_GETS |           6      0.33%      0.33% |        1802     98.63%     98.96% |           1      0.05%     99.01% |           2      0.11%     99.12% |           2      0.11%     99.23% |           1      0.05%     99.29% |           2      0.11%     99.40% |           1      0.05%     99.45% |           1      0.05%     99.51% |           1      0.05%     99.56% |           1      0.05%     99.62% |           1      0.05%     99.67% |           2      0.11%     99.78% |           1      0.05%     99.84% |           1      0.05%     99.89% |           1      0.05%     99.95% |           1      0.05%    100.00% (Unspecified)
board.cache_hierarchy.ruby_system.L1Cache_Controller.E.Fwd_GETS::total         1827                       (Unspecified)
board.cache_hierarchy.ruby_system.L1Cache_Controller.M.Load |       11403      4.62%      4.62% |       14769      5.98%     10.60% |       14700      5.95%     16.55% |       14739      5.97%     22.52% |       14715      5.96%     28.48% |       14726      5.96%     34.44% |       14703      5.95%     40.39% |       14710      5.96%     46.35% |       14718      5.96%     52.31% |       14739      5.97%     58.28% |       14717      5.96%     64.24% |       14720      5.96%     70.20% |       14720      5.96%     76.16% |       14722      5.96%     82.12% |       14721      5.96%     88.08% |       14720      5.96%     94.04% |       14720      5.96%    100.00% (Unspecified)
board.cache_hierarchy.ruby_system.L1Cache_Controller.M.Load::total       246962                       (Unspecified)
board.cache_hierarchy.ruby_system.L1Cache_Controller.M.Store |       22399      8.64%      8.64% |       15006      5.79%     14.42% |       14741      5.68%     20.11% |       15012      5.79%     25.89% |       15009      5.79%     31.68% |       15004      5.79%     37.47% |       14741      5.68%     43.15% |       14743      5.68%     48.83% |       14745      5.69%     54.52% |       14745      5.69%     60.21% |       14744      5.68%     65.89% |       14744      5.68%     71.58% |       14744      5.68%     77.26% |       14744      5.68%     82.95% |       14744      5.68%     88.63% |       14744      5.68%     94.32% |       14744      5.68%    100.00% (Unspecified)
board.cache_hierarchy.ruby_system.L1Cache_Controller.M.Store::total       259353                       (Unspecified)
board.cache_hierarchy.ruby_system.L1Cache_Controller.M.L1_Replacement |         338     62.13%     62.13% |          13      2.39%     64.52% |          13      2.39%     66.91% |          13      2.39%     69.30% |          13      2.39%     71.69% |          13      2.39%     74.08% |          13      2.39%     76.47% |          13      2.39%     78.86% |          12      2.21%     81.07% |          12      2.21%     83.27% |          13      2.39%     85.66% |          13      2.39%     88.05% |          13      2.39%     90.44% |          13      2.39%     92.83% |          13      2.39%     95.22% |          13      2.39%     97.61% |          13      2.39%    100.00% (Unspecified)
board.cache_hierarchy.ruby_system.L1Cache_Controller.M.L1_Replacement::total          544                       (Unspecified)
board.cache_hierarchy.ruby_system.L1Cache_Controller.M.Fwd_GETX |          37     17.45%     17.45% |          13      6.13%     23.58% |          16      7.55%     31.13% |           2      0.94%     32.08% |           5      2.36%     34.43% |          14      6.60%     41.04% |           3      1.42%     42.45% |          13      6.13%     48.58% |          13      6.13%     54.72% |          13      6.13%     60.85% |          13      6.13%     66.98% |          13      6.13%     73.11% |          13      6.13%     79.25% |          14      6.60%     85.85% |          14      6.60%     92.45% |          14      6.60%     99.06% |           2      0.94%    100.00% (Unspecified)
board.cache_hierarchy.ruby_system.L1Cache_Controller.M.Fwd_GETX::total          212                       (Unspecified)
board.cache_hierarchy.ruby_system.L1Cache_Controller.M.Fwd_GETS |         418     71.09%     71.09% |          12      2.04%     73.13% |          11      1.87%     75.00% |          13      2.21%     77.21% |           9      1.53%     78.74% |          17      2.89%     81.63% |           8      1.36%     82.99% |          12      2.04%     85.03% |          11      1.87%     86.90% |          11      1.87%     88.78% |          11      1.87%     90.65% |          11      1.87%     92.52% |          11      1.87%     94.39% |          10      1.70%     96.09% |          10      1.70%     97.79% |          10      1.70%     99.49% |           3      0.51%    100.00% (Unspecified)
board.cache_hierarchy.ruby_system.L1Cache_Controller.M.Fwd_GETS::total          588                       (Unspecified)
board.cache_hierarchy.ruby_system.L1Cache_Controller.IS.Inv |           0      0.00%      0.00% |           0      0.00%      0.00% |           0      0.00%      0.00% |           0      0.00%      0.00% |           0      0.00%      0.00% |           0      0.00%      0.00% |           1    100.00%    100.00% |           0      0.00%    100.00% |           0      0.00%    100.00% |           0      0.00%    100.00% |           0      0.00%    100.00% |           0      0.00%    100.00% |           0      0.00%    100.00% |           0      0.00%    100.00% |           0      0.00%    100.00% |           0      0.00%    100.00% |           0      0.00%    100.00% (Unspecified)
board.cache_hierarchy.ruby_system.L1Cache_Controller.IS.Inv::total            1                       (Unspecified)
board.cache_hierarchy.ruby_system.L1Cache_Controller.IS.Data_Exclusive |          65      3.12%      3.12% |        1814     87.00%     90.12% |          15      0.72%     90.84% |          14      0.67%     91.51% |          16      0.77%     92.28% |          13      0.62%     92.90% |          14      0.67%     93.57% |          13      0.62%     94.20% |          13      0.62%     94.82% |          12      0.58%     95.40% |          13      0.62%     96.02% |          13      0.62%     96.64% |          14      0.67%     97.31% |          13      0.62%     97.94% |          16      0.77%     98.71% |          14      0.67%     99.38% |          13      0.62%    100.00% (Unspecified)
board.cache_hierarchy.ruby_system.L1Cache_Controller.IS.Data_Exclusive::total         2085                       (Unspecified)
board.cache_hierarchy.ruby_system.L1Cache_Controller.IS.DataS_fromL1 |          67      2.77%      2.77% |         272     11.26%     14.04% |        1820     75.36%     89.40% |          18      0.75%     90.14% |          19      0.79%     90.93% |          18      0.75%     91.68% |          20      0.83%     92.51% |          19      0.79%     93.29% |          18      0.75%     94.04% |          17      0.70%     94.74% |          18      0.75%     95.49% |          18      0.75%     96.23% |          18      0.75%     96.98% |          19      0.79%     97.76% |          18      0.75%     98.51% |          18      0.75%     99.25% |          18      0.75%    100.00% (Unspecified)
board.cache_hierarchy.ruby_system.L1Cache_Controller.IS.DataS_fromL1::total         2415                       (Unspecified)
board.cache_hierarchy.ruby_system.L1Cache_Controller.IS.Data_all_Acks |         373      1.16%      1.16% |         185      0.57%      1.73% |         426      1.32%      3.05% |        2256      7.00%     10.05% |        2256      7.00%     17.05% |        2256      7.00%     24.05% |        2225      6.90%     30.95% |        2231      6.92%     37.87% |        2224      6.90%     44.77% |        2230      6.92%     51.68% |        2223      6.90%     58.58% |        2227      6.91%     65.49% |        2226      6.90%     72.39% |        2226      6.90%     79.30% |        2226      6.90%     86.20% |        2225      6.90%     93.10% |        2224      6.90%    100.00% (Unspecified)
board.cache_hierarchy.ruby_system.L1Cache_Controller.IS.Data_all_Acks::total        32239                       (Unspecified)
board.cache_hierarchy.ruby_system.L1Cache_Controller.IM.Data |           0      0.00%      0.00% |           0      0.00%      0.00% |           0      0.00%      0.00% |           1     16.67%     16.67% |           3     50.00%     66.67% |           1     16.67%     83.33% |           1     16.67%    100.00% |           0      0.00%    100.00% |           0      0.00%    100.00% |           0      0.00%    100.00% |           0      0.00%    100.00% |           0      0.00%    100.00% |           0      0.00%    100.00% |           0      0.00%    100.00% |           0      0.00%    100.00% |           0      0.00%    100.00% |           0      0.00%    100.00% (Unspecified)
board.cache_hierarchy.ruby_system.L1Cache_Controller.IM.Data::total            6                       (Unspecified)
board.cache_hierarchy.ruby_system.L1Cache_Controller.IM.Data_all_Acks |         400     40.44%     40.44% |          62      6.27%     46.71% |          28      2.83%     49.54% |          65      6.57%     56.12% |          62      6.27%     62.39% |          64      6.47%     68.86% |          30      3.03%     71.89% |          29      2.93%     74.82% |          27      2.73%     77.55% |          29      2.93%     80.49% |          28      2.83%     83.32% |          28      2.83%     86.15% |          28      2.83%     88.98% |          28      2.83%     91.81% |          26      2.63%     94.44% |          27      2.73%     97.17% |          28      2.83%    100.00% (Unspecified)
board.cache_hierarchy.ruby_system.L1Cache_Controller.IM.Data_all_Acks::total          989                       (Unspecified)
board.cache_hierarchy.ruby_system.L1Cache_Controller.SM.Inv |           0      0.00%      0.00% |           0      0.00%      0.00% |           0      0.00%      0.00% |           0      0.00%      0.00% |           2     50.00%     50.00% |           1     25.00%     75.00% |           1     25.00%    100.00% |           0      0.00%    100.00% |           0      0.00%    100.00% |           0      0.00%    100.00% |           0      0.00%    100.00% |           0      0.00%    100.00% |           0      0.00%    100.00% |           0      0.00%    100.00% |           0      0.00%    100.00% |           0      0.00%    100.00% |           0      0.00%    100.00% (Unspecified)
board.cache_hierarchy.ruby_system.L1Cache_Controller.SM.Inv::total            4                       (Unspecified)
board.cache_hierarchy.ruby_system.L1Cache_Controller.SM.Ack |          28     10.98%     10.98% |           9      3.53%     14.51% |          20      7.84%     22.35% |          14      5.49%     27.84% |          15      5.88%     33.73% |          16      6.27%     40.00% |          15      5.88%     45.88% |          13      5.10%     50.98% |          14      5.49%     56.47% |          13      5.10%     61.57% |          14      5.49%     67.06% |          14      5.49%     72.55% |          14      5.49%     78.04% |          14      5.49%     83.53% |          14      5.49%     89.02% |          14      5.49%     94.51% |          14      5.49%    100.00% (Unspecified)
board.cache_hierarchy.ruby_system.L1Cache_Controller.SM.Ack::total          255                       (Unspecified)
board.cache_hierarchy.ruby_system.L1Cache_Controller.SM.Ack_all |          23     10.13%     10.13% |           9      3.96%     14.10% |          15      6.61%     20.70% |          12      5.29%     25.99% |          12      5.29%     31.28% |          13      5.73%     37.00% |          14      6.17%     43.17% |          13      5.73%     48.90% |          13      5.73%     54.63% |          12      5.29%     59.91% |          13      5.73%     65.64% |          13      5.73%     71.37% |          13      5.73%     77.09% |          13      5.73%     82.82% |          13      5.73%     88.55% |          13      5.73%     94.27% |          13      5.73%    100.00% (Unspecified)
board.cache_hierarchy.ruby_system.L1Cache_Controller.SM.Ack_all::total          227                       (Unspecified)
board.cache_hierarchy.ruby_system.L1Cache_Controller.IS_I.Data_all_Acks |           0      0.00%      0.00% |           0      0.00%      0.00% |           0      0.00%      0.00% |           0      0.00%      0.00% |           0      0.00%      0.00% |           0      0.00%      0.00% |           1    100.00%    100.00% |           0      0.00%    100.00% |           0      0.00%    100.00% |           0      0.00%    100.00% |           0      0.00%    100.00% |           0      0.00%    100.00% |           0      0.00%    100.00% |           0      0.00%    100.00% |           0      0.00%    100.00% |           0      0.00%    100.00% |           0      0.00%    100.00% (Unspecified)
board.cache_hierarchy.ruby_system.L1Cache_Controller.IS_I.Data_all_Acks::total            1                       (Unspecified)
board.cache_hierarchy.ruby_system.L1Cache_Controller.M_I.WB_Ack |         349     61.12%     61.12% |          14      2.45%     63.57% |          14      2.45%     66.02% |          14      2.45%     68.48% |          14      2.45%     70.93% |          14      2.45%     73.38% |          14      2.45%     75.83% |          14      2.45%     78.28% |          13      2.28%     80.56% |          13      2.28%     82.84% |          14      2.45%     85.29% |          14      2.45%     87.74% |          14      2.45%     90.19% |          14      2.45%     92.64% |          14      2.45%     95.10% |          14      2.45%     97.55% |          14      2.45%    100.00% (Unspecified)
board.cache_hierarchy.ruby_system.L1Cache_Controller.M_I.WB_Ack::total          571                       (Unspecified)
board.cache_hierarchy.ruby_system.L2Cache_Controller.L1_GET_INSTR |         152      5.02%      5.02% |         180      5.95%     10.98% |         220      7.27%     18.25% |         245      8.10%     26.35% |         217      7.17%     33.52% |         190      6.28%     39.80% |         213      7.04%     46.84% |         154      5.09%     51.93% |         202      6.68%     58.61% |         201      6.64%     65.26% |         191      6.31%     71.57% |         193      6.38%     77.95% |         202      6.68%     84.63% |         187      6.18%     90.81% |         152      5.02%     95.83% |         126      4.17%    100.00% (Unspecified)
board.cache_hierarchy.ruby_system.L2Cache_Controller.L1_GET_INSTR::total         3025                       (Unspecified)
board.cache_hierarchy.ruby_system.L2Cache_Controller.L1_GETS |        2128      6.11%      6.11% |        2165      6.22%     12.33% |        2210      6.35%     18.68% |        2214      6.36%     25.03% |        2193      6.30%     31.33% |        2204      6.33%     37.66% |        2188      6.28%     43.94% |        2153      6.18%     50.13% |        2165      6.22%     56.35% |        2191      6.29%     62.64% |        2207      6.34%     68.98% |        2123      6.10%     75.07% |        2162      6.21%     81.28% |        2175      6.25%     87.53% |        2182      6.27%     93.79% |        2161      6.21%    100.00% (Unspecified)
board.cache_hierarchy.ruby_system.L2Cache_Controller.L1_GETS::total        34821                       (Unspecified)
board.cache_hierarchy.ruby_system.L2Cache_Controller.L1_GETX |          48      4.79%      4.79% |          53      5.29%     10.08% |          53      5.29%     15.37% |          54      5.39%     20.76% |          92      9.18%     29.94% |         112     11.18%     41.12% |          77      7.68%     48.80% |          81      8.08%     56.89% |          81      8.08%     64.97% |          48      4.79%     69.76% |          68      6.79%     76.55% |          33      3.29%     79.84% |          65      6.49%     86.33% |          64      6.39%     92.71% |          42      4.19%     96.91% |          31      3.09%    100.00% (Unspecified)
board.cache_hierarchy.ruby_system.L2Cache_Controller.L1_GETX::total         1002                       (Unspecified)
board.cache_hierarchy.ruby_system.L2Cache_Controller.L1_UPGRADE |           1      0.44%      0.44% |          56     24.67%     25.11% |          29     12.78%     37.89% |          14      6.17%     44.05% |          14      6.17%     50.22% |          33     14.54%     64.76% |           4      1.76%     66.52% |           5      2.20%     68.72% |           2      0.88%     69.60% |           2      0.88%     70.48% |          32     14.10%     84.58% |           0      0.00%     84.58% |          14      6.17%     90.75% |           3      1.32%     92.07% |          17      7.49%     99.56% |           1      0.44%    100.00% (Unspecified)
board.cache_hierarchy.ruby_system.L2Cache_Controller.L1_UPGRADE::total          227                       (Unspecified)
board.cache_hierarchy.ruby_system.L2Cache_Controller.L1_PUTX |          24      4.20%      4.20% |          52      9.11%     13.31% |          31      5.43%     18.74% |          47      8.23%     26.97% |          62     10.86%     37.83% |          63     11.03%     48.86% |          46      8.06%     56.92% |          46      8.06%     64.97% |          46      8.06%     73.03% |          30      5.25%     78.28% |          31      5.43%     83.71% |          12      2.10%     85.81% |          28      4.90%     90.72% |          30      5.25%     95.97% |          15      2.63%     98.60% |           8      1.40%    100.00% (Unspecified)
board.cache_hierarchy.ruby_system.L2Cache_Controller.L1_PUTX::total          571                       (Unspecified)
board.cache_hierarchy.ruby_system.L2Cache_Controller.Mem_Data |          60      5.22%      5.22% |          75      6.52%     11.74% |          78      6.78%     18.52% |          79      6.87%     25.39% |          93      8.09%     33.48% |          93      8.09%     41.57% |          74      6.43%     48.00% |          70      6.09%     54.09% |          73      6.35%     60.43% |          75      6.52%     66.96% |          59      5.13%     72.09% |          44      3.83%     75.91% |          64      5.57%     81.48% |          77      6.70%     88.17% |          67      5.83%     94.00% |          69      6.00%    100.00% (Unspecified)
board.cache_hierarchy.ruby_system.L2Cache_Controller.Mem_Data::total         1150                       (Unspecified)
board.cache_hierarchy.ruby_system.L2Cache_Controller.WB_Data |          23      3.91%      3.91% |          86     14.63%     18.54% |          63     10.71%     29.25% |          32      5.44%     34.69% |          31      5.27%     39.97% |          60     10.20%     50.17% |          20      3.40%     53.57% |          22      3.74%     57.31% |          20      3.40%     60.71% |          40      6.80%     67.52% |          50      8.50%     76.02% |          19      3.23%     79.25% |          28      4.76%     84.01% |          33      5.61%     89.63% |          35      5.95%     95.58% |          26      4.42%    100.00% (Unspecified)
board.cache_hierarchy.ruby_system.L2Cache_Controller.WB_Data::total          588                       (Unspecified)
board.cache_hierarchy.ruby_system.L2Cache_Controller.WB_Data_clean |         108      5.91%      5.91% |         113      6.19%     12.10% |         114      6.24%     18.34% |         129      7.06%     25.40% |         114      6.24%     31.64% |         118      6.46%     38.10% |         116      6.35%     44.44% |         113      6.19%     50.63% |         113      6.19%     56.81% |         111      6.08%     62.89% |         114      6.24%     69.13% |         110      6.02%     75.15% |         116      6.35%     81.50% |         116      6.35%     87.85% |         115      6.29%     94.14% |         107      5.86%    100.00% (Unspecified)
board.cache_hierarchy.ruby_system.L2Cache_Controller.WB_Data_clean::total         1827                       (Unspecified)
board.cache_hierarchy.ruby_system.L2Cache_Controller.Unblock |         131      5.42%      5.42% |         199      8.24%     13.66% |         177      7.33%     20.99% |         161      6.67%     27.66% |         145      6.00%     33.66% |         178      7.37%     41.04% |         136      5.63%     46.67% |         135      5.59%     52.26% |         133      5.51%     57.76% |         151      6.25%     64.02% |         164      6.79%     70.81% |         129      5.34%     76.15% |         144      5.96%     82.11% |         149      6.17%     88.28% |         150      6.21%     94.49% |         133      5.51%    100.00% (Unspecified)
board.cache_hierarchy.ruby_system.L2Cache_Controller.Unblock::total         2415                       (Unspecified)
board.cache_hierarchy.ruby_system.L2Cache_Controller.Exclusive_Unblock |         174      5.27%      5.27% |         253      7.66%     12.94% |         213      6.45%     19.39% |         213      6.45%     25.84% |         257      7.79%     33.63% |         285      8.63%     42.26% |         220      6.66%     48.92% |         217      6.57%     55.50% |         215      6.51%     62.01% |         179      5.42%     67.43% |         207      6.27%     73.70% |         147      4.45%     78.16% |         199      6.03%     84.19% |         185      5.60%     89.79% |         180      5.45%     95.24% |         157      4.76%    100.00% (Unspecified)
board.cache_hierarchy.ruby_system.L2Cache_Controller.Exclusive_Unblock::total         3301                       (Unspecified)
board.cache_hierarchy.ruby_system.L2Cache_Controller.NP.L1_GET_INSTR |          26      6.75%      6.75% |          26      6.75%     13.51% |          27      7.01%     20.52% |          28      7.27%     27.79% |          26      6.75%     34.55% |          25      6.49%     41.04% |          20      5.19%     46.23% |          19      4.94%     51.17% |          21      5.45%     56.62% |          24      6.23%     62.86% |          24      6.23%     69.09% |          22      5.71%     74.81% |          27      7.01%     81.82% |          26      6.75%     88.57% |          21      5.45%     94.03% |          23      5.97%    100.00% (Unspecified)
board.cache_hierarchy.ruby_system.L2Cache_Controller.NP.L1_GET_INSTR::total          385                       (Unspecified)
board.cache_hierarchy.ruby_system.L2Cache_Controller.NP.L1_GETS |           0      0.00%      0.00% |           2      3.03%      3.03% |           0      0.00%      3.03% |           0      0.00%      3.03% |          16     24.24%     27.27% |           1      1.52%     28.79% |           3      4.55%     33.33% |           0      0.00%     33.33% |           1      1.52%     34.85% |          17     25.76%     60.61% |           1      1.52%     62.12% |           2      3.03%     65.15% |           1      1.52%     66.67% |           0      0.00%     66.67% |           5      7.58%     74.24% |          17     25.76%    100.00% (Unspecified)
board.cache_hierarchy.ruby_system.L2Cache_Controller.NP.L1_GETS::total           66                       (Unspecified)
board.cache_hierarchy.ruby_system.L2Cache_Controller.NP.L1_GETX |          34      4.86%      4.86% |          47      6.72%     11.59% |          51      7.30%     18.88% |          51      7.30%     26.18% |          51      7.30%     33.48% |          67      9.59%     43.06% |          51      7.30%     50.36% |          51      7.30%     57.65% |          51      7.30%     64.95% |          34      4.86%     69.81% |          34      4.86%     74.68% |          20      2.86%     77.54% |          36      5.15%     82.69% |          51      7.30%     89.99% |          41      5.87%     95.85% |          29      4.15%    100.00% (Unspecified)
board.cache_hierarchy.ruby_system.L2Cache_Controller.NP.L1_GETX::total          699                       (Unspecified)
board.cache_hierarchy.ruby_system.L2Cache_Controller.SS.L1_GET_INSTR |         126      4.78%      4.78% |         154      5.84%     10.62% |         192      7.28%     17.91% |         217      8.23%     26.14% |         191      7.25%     33.38% |         163      6.18%     39.57% |         193      7.32%     46.89% |         134      5.08%     51.97% |         181      6.87%     58.84% |         177      6.71%     65.55% |         167      6.34%     71.89% |         171      6.49%     78.38% |         175      6.64%     85.02% |         161      6.11%     91.12% |         131      4.97%     96.09% |         103      3.91%    100.00% (Unspecified)
board.cache_hierarchy.ruby_system.L2Cache_Controller.SS.L1_GET_INSTR::total         2636                       (Unspecified)
board.cache_hierarchy.ruby_system.L2Cache_Controller.SS.L1_GETS |        1812      6.20%      6.20% |        1812      6.20%     12.40% |        1828      6.26%     18.66% |        1834      6.28%     24.94% |        1823      6.24%     31.18% |        1804      6.17%     37.35% |        1834      6.28%     43.63% |        1812      6.20%     49.83% |        1828      6.26%     56.09% |        1841      6.30%     62.39% |        1845      6.32%     68.71% |        1811      6.20%     74.91% |        1821      6.23%     81.14% |        1829      6.26%     87.40% |        1838      6.29%     93.69% |        1843      6.31%    100.00% (Unspecified)
board.cache_hierarchy.ruby_system.L2Cache_Controller.SS.L1_GETS::total        29215                       (Unspecified)
board.cache_hierarchy.ruby_system.L2Cache_Controller.SS.L1_GETX |           0      0.00%      0.00% |           0      0.00%      0.00% |           0      0.00%      0.00% |           0      0.00%      0.00% |           0      0.00%      0.00% |           0      0.00%      0.00% |           0      0.00%      0.00% |           0      0.00%      0.00% |           0      0.00%      0.00% |           0      0.00%      0.00% |           6    100.00%    100.00% |           0      0.00%    100.00% |           0      0.00%    100.00% |           0      0.00%    100.00% |           0      0.00%    100.00% |           0      0.00%    100.00% (Unspecified)
board.cache_hierarchy.ruby_system.L2Cache_Controller.SS.L1_GETX::total            6                       (Unspecified)
board.cache_hierarchy.ruby_system.L2Cache_Controller.SS.L1_UPGRADE |           1      0.45%      0.45% |          55     24.89%     25.34% |          29     13.12%     38.46% |          14      6.33%     44.80% |          14      6.33%     51.13% |          33     14.93%     66.06% |           4      1.81%     67.87% |           5      2.26%     70.14% |           2      0.90%     71.04% |           2      0.90%     71.95% |          27     12.22%     84.16% |           0      0.00%     84.16% |          14      6.33%     90.50% |           3      1.36%     91.86% |          17      7.69%     99.55% |           1      0.45%    100.00% (Unspecified)
board.cache_hierarchy.ruby_system.L2Cache_Controller.SS.L1_UPGRADE::total          221                       (Unspecified)
board.cache_hierarchy.ruby_system.L2Cache_Controller.M.L1_GETS |         125      6.19%      6.19% |         143      7.08%     13.27% |         131      6.49%     19.76% |         145      7.18%     26.94% |         135      6.69%     33.63% |         139      6.88%     40.52% |         136      6.74%     47.25% |         131      6.49%     53.74% |         131      6.49%     60.23% |         112      5.55%     65.78% |         118      5.84%     71.62% |         112      5.55%     77.17% |         119      5.89%     83.06% |         118      5.84%     88.91% |         116      5.75%     94.65% |         108      5.35%    100.00% (Unspecified)
board.cache_hierarchy.ruby_system.L2Cache_Controller.M.L1_GETS::total         2019                       (Unspecified)
board.cache_hierarchy.ruby_system.L2Cache_Controller.M.L1_GETX |           2      2.56%      2.56% |           4      5.13%      7.69% |           2      2.56%     10.26% |           3      3.85%     14.10% |          21     26.92%     41.03% |          17     21.79%     62.82% |           2      2.56%     65.38% |           2      2.56%     67.95% |           2      2.56%     70.51% |           2      2.56%     73.08% |           2      2.56%     75.64% |           1      1.28%     76.92% |          14     17.95%     94.87% |           1      1.28%     96.15% |           1      1.28%     97.44% |           2      2.56%    100.00% (Unspecified)
board.cache_hierarchy.ruby_system.L2Cache_Controller.M.L1_GETX::total           78                       (Unspecified)
board.cache_hierarchy.ruby_system.L2Cache_Controller.MT.L1_GETS |         131      5.42%      5.42% |         199      8.24%     13.66% |         177      7.33%     20.99% |         161      6.67%     27.66% |         145      6.00%     33.66% |         178      7.37%     41.04% |         136      5.63%     46.67% |         135      5.59%     52.26% |         133      5.51%     57.76% |         151      6.25%     64.02% |         164      6.79%     70.81% |         129      5.34%     76.15% |         144      5.96%     82.11% |         149      6.17%     88.28% |         150      6.21%     94.49% |         133      5.51%    100.00% (Unspecified)
board.cache_hierarchy.ruby_system.L2Cache_Controller.MT.L1_GETS::total         2415                       (Unspecified)
board.cache_hierarchy.ruby_system.L2Cache_Controller.MT.L1_GETX |          12      5.66%      5.66% |           2      0.94%      6.60% |           0      0.00%      6.60% |           0      0.00%      6.60% |          20      9.43%     16.04% |          28     13.21%     29.25% |          24     11.32%     40.57% |          28     13.21%     53.77% |          28     13.21%     66.98% |          12      5.66%     72.64% |          19      8.96%     81.60% |          12      5.66%     87.26% |          15      7.08%     94.34% |          12      5.66%    100.00% |           0      0.00%    100.00% |           0      0.00%    100.00% (Unspecified)
board.cache_hierarchy.ruby_system.L2Cache_Controller.MT.L1_GETX::total          212                       (Unspecified)
board.cache_hierarchy.ruby_system.L2Cache_Controller.MT.L1_PUTX |          24      4.20%      4.20% |          52      9.11%     13.31% |          31      5.43%     18.74% |          47      8.23%     26.97% |          62     10.86%     37.83% |          63     11.03%     48.86% |          46      8.06%     56.92% |          46      8.06%     64.97% |          46      8.06%     73.03% |          30      5.25%     78.28% |          31      5.43%     83.71% |          12      2.10%     85.81% |          28      4.90%     90.72% |          30      5.25%     95.97% |          15      2.63%     98.60% |           8      1.40%    100.00% (Unspecified)
board.cache_hierarchy.ruby_system.L2Cache_Controller.MT.L1_PUTX::total          571                       (Unspecified)
board.cache_hierarchy.ruby_system.L2Cache_Controller.ISS.Mem_Data |           0      0.00%      0.00% |           2      3.03%      3.03% |           0      0.00%      3.03% |           0      0.00%      3.03% |          16     24.24%     27.27% |           1      1.52%     28.79% |           3      4.55%     33.33% |           0      0.00%     33.33% |           1      1.52%     34.85% |          17     25.76%     60.61% |           1      1.52%     62.12% |           2      3.03%     65.15% |           1      1.52%     66.67% |           0      0.00%     66.67% |           5      7.58%     74.24% |          17     25.76%    100.00% (Unspecified)
board.cache_hierarchy.ruby_system.L2Cache_Controller.ISS.Mem_Data::total           66                       (Unspecified)
board.cache_hierarchy.ruby_system.L2Cache_Controller.IS.L1_GET_INSTR |           0      0.00%      0.00% |           0      0.00%      0.00% |           1     25.00%     25.00% |           0      0.00%     25.00% |           0      0.00%     25.00% |           2     50.00%     75.00% |           0      0.00%     75.00% |           1     25.00%    100.00% |           0      0.00%    100.00% |           0      0.00%    100.00% |           0      0.00%    100.00% |           0      0.00%    100.00% |           0      0.00%    100.00% |           0      0.00%    100.00% |           0      0.00%    100.00% |           0      0.00%    100.00% (Unspecified)
board.cache_hierarchy.ruby_system.L2Cache_Controller.IS.L1_GET_INSTR::total            4                       (Unspecified)
board.cache_hierarchy.ruby_system.L2Cache_Controller.IS.Mem_Data |          26      6.75%      6.75% |          26      6.75%     13.51% |          27      7.01%     20.52% |          28      7.27%     27.79% |          26      6.75%     34.55% |          25      6.49%     41.04% |          20      5.19%     46.23% |          19      4.94%     51.17% |          21      5.45%     56.62% |          24      6.23%     62.86% |          24      6.23%     69.09% |          22      5.71%     74.81% |          27      7.01%     81.82% |          26      6.75%     88.57% |          21      5.45%     94.03% |          23      5.97%    100.00% (Unspecified)
board.cache_hierarchy.ruby_system.L2Cache_Controller.IS.Mem_Data::total          385                       (Unspecified)
board.cache_hierarchy.ruby_system.L2Cache_Controller.IM.Mem_Data |          34      4.86%      4.86% |          47      6.72%     11.59% |          51      7.30%     18.88% |          51      7.30%     26.18% |          51      7.30%     33.48% |          67      9.59%     43.06% |          51      7.30%     50.36% |          51      7.30%     57.65% |          51      7.30%     64.95% |          34      4.86%     69.81% |          34      4.86%     74.68% |          20      2.86%     77.54% |          36      5.15%     82.69% |          51      7.30%     89.99% |          41      5.87%     95.85% |          29      4.15%    100.00% (Unspecified)
board.cache_hierarchy.ruby_system.L2Cache_Controller.IM.Mem_Data::total          699                       (Unspecified)
board.cache_hierarchy.ruby_system.L2Cache_Controller.SS_MB.L1_GETS |           0      0.00%      0.00% |           0      0.00%      0.00% |           0      0.00%      0.00% |           0      0.00%      0.00% |           0      0.00%      0.00% |           0      0.00%      0.00% |           0      0.00%      0.00% |           0      0.00%      0.00% |           0      0.00%      0.00% |           0      0.00%      0.00% |           1    100.00%    100.00% |           0      0.00%    100.00% |           0      0.00%    100.00% |           0      0.00%    100.00% |           0      0.00%    100.00% |           0      0.00%    100.00% (Unspecified)
board.cache_hierarchy.ruby_system.L2Cache_Controller.SS_MB.L1_GETS::total            1                       (Unspecified)
board.cache_hierarchy.ruby_system.L2Cache_Controller.SS_MB.L1_GETX |           0      0.00%      0.00% |           0      0.00%      0.00% |           0      0.00%      0.00% |           0      0.00%      0.00% |           0      0.00%      0.00% |           0      0.00%      0.00% |           0      0.00%      0.00% |           0      0.00%      0.00% |           0      0.00%      0.00% |           0      0.00%      0.00% |           2    100.00%    100.00% |           0      0.00%    100.00% |           0      0.00%    100.00% |           0      0.00%    100.00% |           0      0.00%    100.00% |           0      0.00%    100.00% (Unspecified)
board.cache_hierarchy.ruby_system.L2Cache_Controller.SS_MB.L1_GETX::total            2                       (Unspecified)
board.cache_hierarchy.ruby_system.L2Cache_Controller.SS_MB.L1_UPGRADE |           0      0.00%      0.00% |           1     25.00%     25.00% |           0      0.00%     25.00% |           0      0.00%     25.00% |           0      0.00%     25.00% |           0      0.00%     25.00% |           0      0.00%     25.00% |           0      0.00%     25.00% |           0      0.00%     25.00% |           0      0.00%     25.00% |           3     75.00%    100.00% |           0      0.00%    100.00% |           0      0.00%    100.00% |           0      0.00%    100.00% |           0      0.00%    100.00% |           0      0.00%    100.00% (Unspecified)
board.cache_hierarchy.ruby_system.L2Cache_Controller.SS_MB.L1_UPGRADE::total            4                       (Unspecified)
board.cache_hierarchy.ruby_system.L2Cache_Controller.SS_MB.Exclusive_Unblock |           1      0.44%      0.44% |          55     24.23%     24.67% |          29     12.78%     37.44% |          14      6.17%     43.61% |          14      6.17%     49.78% |          33     14.54%     64.32% |           4      1.76%     66.08% |           5      2.20%     68.28% |           2      0.88%     69.16% |           2      0.88%     70.04% |          33     14.54%     84.58% |           0      0.00%     84.58% |          14      6.17%     90.75% |           3      1.32%     92.07% |          17      7.49%     99.56% |           1      0.44%    100.00% (Unspecified)
board.cache_hierarchy.ruby_system.L2Cache_Controller.SS_MB.Exclusive_Unblock::total          227                       (Unspecified)
board.cache_hierarchy.ruby_system.L2Cache_Controller.MT_MB.L1_GETS |           0      0.00%      0.00% |           0      0.00%      0.00% |           0      0.00%      0.00% |           0      0.00%      0.00% |           0      0.00%      0.00% |           0      0.00%      0.00% |           0      0.00%      0.00% |           0      0.00%      0.00% |           0      0.00%      0.00% |           0      0.00%      0.00% |           1    100.00%    100.00% |           0      0.00%    100.00% |           0      0.00%    100.00% |           0      0.00%    100.00% |           0      0.00%    100.00% |           0      0.00%    100.00% (Unspecified)
board.cache_hierarchy.ruby_system.L2Cache_Controller.MT_MB.L1_GETS::total            1                       (Unspecified)
board.cache_hierarchy.ruby_system.L2Cache_Controller.MT_MB.L1_GETX |           0      0.00%      0.00% |           0      0.00%      0.00% |           0      0.00%      0.00% |           0      0.00%      0.00% |           0      0.00%      0.00% |           0      0.00%      0.00% |           0      0.00%      0.00% |           0      0.00%      0.00% |           0      0.00%      0.00% |           0      0.00%      0.00% |           3    100.00%    100.00% |           0      0.00%    100.00% |           0      0.00%    100.00% |           0      0.00%    100.00% |           0      0.00%    100.00% |           0      0.00%    100.00% (Unspecified)
board.cache_hierarchy.ruby_system.L2Cache_Controller.MT_MB.L1_GETX::total            3                       (Unspecified)
board.cache_hierarchy.ruby_system.L2Cache_Controller.MT_MB.Exclusive_Unblock |         173      5.63%      5.63% |         198      6.44%     12.07% |         184      5.99%     18.05% |         199      6.47%     24.53% |         243      7.91%     32.43% |         252      8.20%     40.63% |         216      7.03%     47.66% |         212      6.90%     54.55% |         213      6.93%     61.48% |         177      5.76%     67.24% |         174      5.66%     72.90% |         147      4.78%     77.68% |         185      6.02%     83.70% |         182      5.92%     89.62% |         163      5.30%     94.93% |         156      5.07%    100.00% (Unspecified)
board.cache_hierarchy.ruby_system.L2Cache_Controller.MT_MB.Exclusive_Unblock::total         3074                       (Unspecified)
board.cache_hierarchy.ruby_system.L2Cache_Controller.MT_IIB.L1_GETS |           0      0.00%      0.00% |           8      0.90%      0.90% |          68      7.62%      8.52% |          72      8.07%     16.59% |          70      7.85%     24.44% |          66      7.40%     31.84% |          66      7.40%     39.24% |          64      7.17%     46.41% |          60      6.73%     53.14% |          58      6.50%     59.64% |          63      7.06%     66.70% |          60      6.73%     73.43% |          63      7.06%     80.49% |          63      7.06%     87.56% |          57      6.39%     93.95% |          54      6.05%    100.00% (Unspecified)
board.cache_hierarchy.ruby_system.L2Cache_Controller.MT_IIB.L1_GETS::total          892                       (Unspecified)
board.cache_hierarchy.ruby_system.L2Cache_Controller.MT_IIB.L1_GETX |           0      0.00%      0.00% |           0      0.00%      0.00% |           0      0.00%      0.00% |           0      0.00%      0.00% |           0      0.00%      0.00% |           0      0.00%      0.00% |           0      0.00%      0.00% |           0      0.00%      0.00% |           0      0.00%      0.00% |           0      0.00%      0.00% |           1    100.00%    100.00% |           0      0.00%    100.00% |           0      0.00%    100.00% |           0      0.00%    100.00% |           0      0.00%    100.00% |           0      0.00%    100.00% (Unspecified)
board.cache_hierarchy.ruby_system.L2Cache_Controller.MT_IIB.L1_GETX::total            1                       (Unspecified)
board.cache_hierarchy.ruby_system.L2Cache_Controller.MT_IIB.WB_Data |          23      4.12%      4.12% |          70     12.54%     16.67% |          63     11.29%     27.96% |          32      5.73%     33.69% |          30      5.38%     39.07% |          60     10.75%     49.82% |          20      3.58%     53.41% |          21      3.76%     57.17% |          20      3.58%     60.75% |          40      7.17%     67.92% |          39      6.99%     74.91% |          19      3.41%     78.32% |          28      5.02%     83.33% |          33      5.91%     89.25% |          35      6.27%     95.52% |          25      4.48%    100.00% (Unspecified)
board.cache_hierarchy.ruby_system.L2Cache_Controller.MT_IIB.WB_Data::total          558                       (Unspecified)
board.cache_hierarchy.ruby_system.L2Cache_Controller.MT_IIB.WB_Data_clean |         108      5.99%      5.99% |         107      5.93%     11.92% |         114      6.32%     18.25% |         114      6.32%     24.57% |         114      6.32%     30.89% |         118      6.54%     37.44% |         115      6.38%     43.82% |         113      6.27%     50.08% |         113      6.27%     56.35% |         111      6.16%     62.51% |         114      6.32%     68.83% |         110      6.10%     74.93% |         115      6.38%     81.31% |         116      6.43%     87.74% |         114      6.32%     94.07% |         107      5.93%    100.00% (Unspecified)
board.cache_hierarchy.ruby_system.L2Cache_Controller.MT_IIB.WB_Data_clean::total         1803                       (Unspecified)
board.cache_hierarchy.ruby_system.L2Cache_Controller.MT_IIB.Unblock |           0      0.00%      0.00% |          22     40.74%     40.74% |           0      0.00%     40.74% |          15     27.78%     68.52% |           1      1.85%     70.37% |           0      0.00%     70.37% |           1      1.85%     72.22% |           1      1.85%     74.07% |           0      0.00%     74.07% |           0      0.00%     74.07% |          11     20.37%     94.44% |           0      0.00%     94.44% |           1      1.85%     96.30% |           0      0.00%     96.30% |           1      1.85%     98.15% |           1      1.85%    100.00% (Unspecified)
board.cache_hierarchy.ruby_system.L2Cache_Controller.MT_IIB.Unblock::total           54                       (Unspecified)
board.cache_hierarchy.ruby_system.L2Cache_Controller.MT_IB.L1_GETS |           0      0.00%      0.00% |           1    100.00%    100.00% |           0      0.00%    100.00% |           0      0.00%    100.00% |           0      0.00%    100.00% |           0      0.00%    100.00% |           0      0.00%    100.00% |           0      0.00%    100.00% |           0      0.00%    100.00% |           0      0.00%    100.00% |           0      0.00%    100.00% |           0      0.00%    100.00% |           0      0.00%    100.00% |           0      0.00%    100.00% |           0      0.00%    100.00% |           0      0.00%    100.00% (Unspecified)
board.cache_hierarchy.ruby_system.L2Cache_Controller.MT_IB.L1_GETS::total            1                       (Unspecified)
[...]
board.processor.cores9.core.commitStats0.committedControl::IsUncondControl         4268                       # Class of control type instructions committed (Count)
board.processor.cores9.core.commitStats0.committedControl::IsCall         2126                       # Class of control type instructions committed (Count)
board.processor.cores9.core.commitStats0.committedControl::IsReturn         2125                       # Class of control type instructions committed (Count)
board.processor.cores9.core.decode.idleCycles        17573                       # Number of cycles decode is idle (Cycle)
board.processor.cores9.core.decode.blockedCycles       134559                       # Number of cycles decode is blocked (Cycle)
board.processor.cores9.core.decode.runCycles        34047                       # Number of cycles decode is running (Cycle)
board.processor.cores9.core.decode.unblockCycles        10358                       # Number of cycles decode is unblocking (Cycle)
board.processor.cores9.core.decode.squashCycles         2168                       # Number of cycles decode is squashing (Cycle)
board.processor.cores9.core.decode.branchResolved        12743                       # Number of times decode resolved a branch (Count)
board.processor.cores9.core.decode.branchMispred          117                       # Number of times decode detected a branch misprediction (Count)
board.processor.cores9.core.decode.decodedInsts       313639                       # Number of instructions handled by decode (Count)
board.processor.cores9.core.decode.squashedInsts          598                       # Number of squashed instructions handled by decode (Count)
board.processor.cores9.core.executeStats0.numInsts       184529                       # Number of executed instructions (Count)
board.processor.cores9.core.executeStats0.numNop            0                       # Number of nop insts executed (Count)
board.processor.cores9.core.executeStats0.numBranches        10921                       # Number of branches executed (Count)
board.processor.cores9.core.executeStats0.numLoadInsts        45885                       # Number of load instructions executed (Count)
board.processor.cores9.core.executeStats0.numStoreInsts        16976                       # Number of stores executed (Count)
board.processor.cores9.core.executeStats0.instRate     0.927678                       # Inst execution rate ((Count/Cycle))
board.processor.cores9.core.executeStats0.numCCRegReads        26946                       # Number of times the CC registers were read (Count)
board.processor.cores9.core.executeStats0.numCCRegWrites        42313                       # Number of times the CC registers were written (Count)
board.processor.cores9.core.executeStats0.numFpRegReads           26                       # Number of times the floating registers were read (Count)
board.processor.cores9.core.executeStats0.numFpRegWrites           12                       # Number of times the floating registers were written (Count)
board.processor.cores9.core.executeStats0.numIntRegReads       244503                       # Number of times the integer registers were read (Count)
board.processor.cores9.core.executeStats0.numIntRegWrites       141664                       # Number of times the integer registers were written (Count)
board.processor.cores9.core.executeStats0.numMemRefs        62861                       # Number of memory refs (Count)
board.processor.cores9.core.executeStats0.numMiscRegReads        86796                       # Number of times the Misc registers were read (Count)
board.processor.cores9.core.executeStats0.numMiscRegWrites            1                       # Number of times the Misc registers were written (Count)
board.processor.cores9.core.executeStats0.numVecAluAccesses            0                       # Number of vector alu accesses (Count)
board.processor.cores9.core.executeStats0.numDiscardedOps            0                       # Number of ops (including micro ops) which were discarded before commit (Count)
board.processor.cores9.core.fetch.predictedBranches        23087                       # Number of branches that fetch has predicted taken (Count)
board.processor.cores9.core.fetch.cycles       160084                       # Number of cycles fetch has run and was not squashing or blocked (Cycle)
board.processor.cores9.core.fetch.squashCycles         4568                       # Number of cycles fetch has spent squashing (Cycle)
board.processor.cores9.core.fetch.miscStallCycles           21                       # Number of cycles fetch has spent waiting on interrupts, or bad addresses, or out of MSHRs (Cycle)
board.processor.cores9.core.fetch.pendingTrapStallCycles          177                       # Number of stall cycles due to pending traps (Cycle)
board.processor.cores9.core.fetch.cacheLines        33614                       # Number of cache lines fetched (Count)
board.processor.cores9.core.fetch.icacheSquashes         2126                       # Number of outstanding Icache misses that were squashed (Count)
board.processor.cores9.core.fetch.nisnDist::samples       198705                       # Number of instructions fetched each cycle (Total) (Count)
board.processor.cores9.core.fetch.nisnDist::mean     1.917400                       # Number of instructions fetched each cycle (Total) (Count)
board.processor.cores9.core.fetch.nisnDist::stdev     3.033099                       # Number of instructions fetched each cycle (Total) (Count)
board.processor.cores9.core.fetch.nisnDist::underflows            0      0.00%      0.00% # Number of instructions fetched each cycle (Total) (Count)
board.processor.cores9.core.fetch.nisnDist::0       135690     68.29%     68.29% # Number of instructions fetched each cycle (Total) (Count)
board.processor.cores9.core.fetch.nisnDist::1           78      0.04%     68.33% # Number of instructions fetched each cycle (Total) (Count)
board.processor.cores9.core.fetch.nisnDist::2         4127      2.08%     70.40% # Number of instructions fetched each cycle (Total) (Count)
board.processor.cores9.core.fetch.nisnDist::3           82      0.04%     70.44% # Number of instructions fetched each cycle (Total) (Count)
board.processor.cores9.core.fetch.nisnDist::4        18501      9.31%     79.76% # Number of instructions fetched each cycle (Total) (Count)
board.processor.cores9.core.fetch.nisnDist::5          160      0.08%     79.84% # Number of instructions fetched each cycle (Total) (Count)
board.processor.cores9.core.fetch.nisnDist::6        10363      5.22%     85.05% # Number of instructions fetched each cycle (Total) (Count)
board.processor.cores9.core.fetch.nisnDist::7         2195      1.10%     86.16% # Number of instructions fetched each cycle (Total) (Count)
board.processor.cores9.core.fetch.nisnDist::8        27509     13.84%    100.00% # Number of instructions fetched each cycle (Total) (Count)
board.processor.cores9.core.fetch.nisnDist::overflows            0      0.00%    100.00% # Number of instructions fetched each cycle (Total) (Count)
board.processor.cores9.core.fetch.nisnDist::min_value            0                       # Number of instructions fetched each cycle (Total) (Count)
board.processor.cores9.core.fetch.nisnDist::max_value            8                       # Number of instructions fetched each cycle (Total) (Count)
board.processor.cores9.core.fetch.nisnDist::total       198705                       # Number of instructions fetched each cycle (Total) (Count)
board.processor.cores9.core.fetchStats0.numInsts       256995                       # Number of instructions fetched (thread level) (Count)
board.processor.cores9.core.fetchStats0.numOps            0                       # Number of ops (including micro ops) fetched (thread level) (Count)
board.processor.cores9.core.fetchStats0.fetchRate     1.291984                       # Number of inst fetches per cycle ((Count/Cycle))
board.processor.cores9.core.fetchStats0.numBranches        23732                       # Number of branches fetched (Count)
board.processor.cores9.core.fetchStats0.branchRate     0.119307                       # Number of branch fetches per cycle (Ratio)
board.processor.cores9.core.fetchStats0.icacheStallCycles        36139                       # ICache total stall cycles (Cycle)
board.processor.cores9.core.fetchStats0.numFetchSuspends            0                       # Number of times Execute suspended instruction fetching (Count)
board.processor.cores9.core.iew.idleCycles            0                       # Number of cycles IEW is idle (Cycle)
board.processor.cores9.core.iew.squashCycles         2168                       # Number of cycles IEW is squashing (Cycle)
board.processor.cores9.core.iew.blockCycles        74242                       # Number of cycles IEW is blocking (Cycle)
board.processor.cores9.core.iew.unblockCycles         6170                       # Number of cycles IEW is unblocking (Cycle)
board.processor.cores9.core.iew.dispatchedInsts       280250                       # Number of instructions dispatched to IQ (Count)
board.processor.cores9.core.iew.dispSquashedInsts            2                       # Number of squashed instructions skipped by dispatch (Count)
board.processor.cores9.core.iew.dispLoadInsts        72799                       # Number of dispatched load instructions (Count)
board.processor.cores9.core.iew.dispStoreInsts        29412                       # Number of dispatched store instructions (Count)
board.processor.cores9.core.iew.dispNonSpecInsts         4132                       # Number of dispatched non-speculative instructions (Count)
board.processor.cores9.core.iew.iqFullEvents         4114                       # Number of times the IQ has become full, causing a stall (Count)
board.processor.cores9.core.iew.lsqFullEvents            1                       # Number of times the LSQ has become full, causing a stall (Count)
board.processor.cores9.core.iew.memOrderViolationEvents         2055                       # Number of memory order violations (Count)
board.processor.cores9.core.iew.predictedTakenIncorrect            8                       # Number of branches that were predicted taken incorrectly (Count)
board.processor.cores9.core.iew.predictedNotTakenIncorrect          106                       # Number of branches that were predicted not taken incorrectly (Count)
board.processor.cores9.core.iew.branchMispredicts          114                       # Number of branch mispredicts detected at execute (Count)
board.processor.cores9.core.iew.instsToCommit       184497                       # Cumulative count of insts sent to commit (Count)
board.processor.cores9.core.iew.writebackCount       184390                       # Cumulative count of insts written-back (Count)
board.processor.cores9.core.iew.producerInst       129040                       # Number of instructions producing a value (Count)
board.processor.cores9.core.iew.consumerInst       250106                       # Number of instructions consuming a value (Count)
board.processor.cores9.core.iew.wbRate       0.926979                       # Insts written-back per cycle ((Count/Cycle))
board.processor.cores9.core.iew.wbFanout     0.515941                       # Average fanout of values written-back ((Count/Count))
board.processor.cores9.core.interrupts.clk_domain.clock         5328                       # Clock period in ticks (Tick)
board.processor.cores9.core.lsq0.forwLoads         4282                       # Number of loads that had data forwarded from stores (Count)
board.processor.cores9.core.lsq0.squashedLoads        43561                       # Number of loads squashed (Count)
board.processor.cores9.core.lsq0.ignoredResponses            1                       # Number of memory responses ignored because the instruction is squashed (Count)
board.processor.cores9.core.lsq0.memOrderViolation         2055                       # Number of memory ordering violations (Count)
board.processor.cores9.core.lsq0.squashedStores        16684                       # Number of stores squashed (Count)
board.processor.cores9.core.lsq0.rescheduledLoads            0                       # Number of loads that were rescheduled (Count)
board.processor.cores9.core.lsq0.blockedByCache            2                       # Number of times an access to memory failed due to the cache being blocked (Count)
board.processor.cores9.core.lsq0.loadToUse::samples        29238                       # Distribution of cycle latency between the first time a load is issued and its completion (Unspecified)
board.processor.cores9.core.lsq0.loadToUse::mean     4.299952                       # Distribution of cycle latency between the first time a load is issued and its completion (Unspecified)
board.processor.cores9.core.lsq0.loadToUse::stdev     5.528898                       # Distribution of cycle latency between the first time a load is issued and its completion (Unspecified)
board.processor.cores9.core.lsq0.loadToUse::0-9        27126     92.78%     92.78% # Distribution of cycle latency between the first time a load is issued and its completion (Unspecified)
board.processor.cores9.core.lsq0.loadToUse::10-19          135      0.46%     93.24% # Distribution of cycle latency between the first time a load is issued and its completion (Unspecified)
board.processor.cores9.core.lsq0.loadToUse::20-29         1955      6.69%     99.92% # Distribution of cycle latency between the first time a load is issued and its completion (Unspecified)
board.processor.cores9.core.lsq0.loadToUse::30-39           18      0.06%     99.99% # Distribution of cycle latency between the first time a load is issued and its completion (Unspecified)
board.processor.cores9.core.lsq0.loadToUse::100-109            1      0.00%     99.99% # Distribution of cycle latency between the first time a load is issued and its completion (Unspecified)
board.processor.cores9.core.lsq0.loadToUse::140-149            2      0.01%    100.00% # Distribution of cycle latency between the first time a load is issued and its completion (Unspecified)
board.processor.cores9.core.lsq0.loadToUse::230-239            1      0.00%    100.00% # Distribution of cycle latency between the first time a load is issued and its completion (Unspecified)
board.processor.cores9.core.lsq0.loadToUse::min_value            2                       # Distribution of cycle latency between the first time a load is issued and its completion (Unspecified)
board.processor.cores9.core.lsq0.loadToUse::max_value          237                       # Distribution of cycle latency between the first time a load is issued and its completion (Unspecified)
board.processor.cores9.core.lsq0.loadToUse::total        29238                       # Distribution of cycle latency between the first time a load is issued and its completion (Unspecified)
board.processor.cores9.core.mmu.dtb.rdAccesses        45881                       # TLB accesses on read requests (Count)
board.processor.cores9.core.mmu.dtb.wrAccesses        16976                       # TLB accesses on write requests (Count)
board.processor.cores9.core.mmu.dtb.rdMisses          107                       # TLB misses on read requests (Count)
board.processor.cores9.core.mmu.dtb.wrMisses           13                       # TLB misses on write requests (Count)
board.processor.cores9.core.mmu.dtb.walker.power_state.pwrStateResidencyTicks::UNDEFINED    340176816                       # Cumulative time (in ticks) in various power states (Tick)
board.processor.cores9.core.mmu.itb.rdAccesses            0                       # TLB accesses on read requests (Count)
board.processor.cores9.core.mmu.itb.wrAccesses        33639                       # TLB accesses on write requests (Count)
board.processor.cores9.core.mmu.itb.rdMisses            0                       # TLB misses on read requests (Count)
board.processor.cores9.core.mmu.itb.wrMisses           79                       # TLB misses on write requests (Count)
board.processor.cores9.core.mmu.itb.walker.power_state.pwrStateResidencyTicks::UNDEFINED    340176816                       # Cumulative time (in ticks) in various power states (Tick)
board.processor.cores9.core.power_state.pwrStateResidencyTicks::ON    340176816                       # Cumulative time (in ticks) in various power states (Tick)
board.processor.cores9.core.rename.squashCycles         2168                       # Number of cycles rename is squashing (Cycle)
board.processor.cores9.core.rename.idleCycles        23868                       # Number of cycles rename is idle (Cycle)
board.processor.cores9.core.rename.blockCycles       111214                       # Number of cycles rename is blocking (Cycle)
board.processor.cores9.core.rename.serializeStallCycles            0                       # count of cycles rename stalled for serializing inst (Cycle)
board.processor.cores9.core.rename.runCycles        38093                       # Number of cycles rename is running (Cycle)
board.processor.cores9.core.rename.unblockCycles        23362                       # Number of cycles rename is unblocking (Cycle)
board.processor.cores9.core.rename.renamedInsts       297009                       # Number of instructions processed by rename (Count)
board.processor.cores9.core.rename.IQFullEvents        20625                       # Number of times rename has blocked due to IQ full (Count)
board.processor.cores9.core.rename.LQFullEvents          112                       # Number of times rename has blocked due to LQ full (Count)
board.processor.cores9.core.rename.SQFullEvents          563                       # Number of times rename has blocked due to SQ full (Count)
board.processor.cores9.core.rename.renamedOperands       429550                       # Number of destination operands rename has renamed (Count)
board.processor.cores9.core.rename.lookups       936181                       # Number of register rename lookups that rename has made (Count)
board.processor.cores9.core.rename.intLookups       440060                       # Number of integer rename lookups (Count)
board.processor.cores9.core.rename.fpLookups           26                       # Number of floating rename lookups (Count)
board.processor.cores9.core.rename.committedMaps       159435                       # Number of HB maps that are committed (Count)
board.processor.cores9.core.rename.undoneMaps       270115                       # Number of HB maps that are undone due to squashing (Count)
board.processor.cores9.core.rename.serializing            0                       # count of serializing insts renamed (Count)
board.processor.cores9.core.rename.tempSerializing            0                       # count of temporary serializing insts renamed (Count)
board.processor.cores9.core.rename.skidInsts        59958                       # count of insts added to the skid buffer (Count)
board.processor.cores9.core.rob.reads          453424                       # The number of ROB reads (Count)
board.processor.cores9.core.rob.writes         583179                       # The number of ROB writes (Count)
board.processor.cores9.core.thread_0.numInsts        73624                       # Number of Instructions committed (Count)
board.processor.cores9.core.thread_0.numOps       110623                       # Number of Ops committed (Count)
board.processor.cores9.core.thread_0.numMemRefs            0                       # Number of Memory References (Count)
board.workload.inst.arm                             0                       # number of arm instructions executed (Count)
board.workload.inst.quiesce                         0                       # number of quiesce instructions executed (Count)

---------- End Simulation Statistics   ----------
