gem5 Simulator System.  https://www.gem5.org
gem5 is copyrighted software; use the --copyright option for details.

gem5 version 23.0.1.0
gem5 compiled Nov 30 2023 11:45:00
gem5 started Nov 30 2023 16:30:28
gem5 executing on quzi, pid 28882
command line: gem5.opt --outdir=exp_31/minor_1GHz -re ./run.py

Global frequency set at 1000000000000 ticks per second
Initializing the matrices...Done.
Beginning multiply...
Done.
Time 133.546 ms
Finished simulation.
