
---------- Begin Simulation Statistics ----------
simSeconds                                   0.000687                       # Number of seconds simulated (Second)
simTicks                                    686691621                       # Number of ticks simulated (Tick)
finalTick                                   948044673                       # Number of ticks from beginning of simulation (restored from checkpoints and never reset) (Tick)
simFreq                                  1000000000000                       # The number of ticks per simulated second ((Tick/Second))
hostSeconds                                     42.59                       # Real time elapsed on the host (Second)
hostTickRate                                 16123788                       # The number of ticks simulated per host second (ticks/s) ((Tick/Second))
hostMemory                                    1755520                       # Number of bytes of host memory used (Byte)
simInsts                                      1764706                       # Number of instructions simulated (Count)
simOps                                        2990903                       # Number of ops (including micro ops) simulated (Count)
hostInstRate                                    41436                       # Simulator instruction rate (inst/s) ((Count/Second))
hostOpRate                                      70227                       # Simulator op (including micro ops) rate (op/s) ((Count/Second))
board.cache_hierarchy.ruby_system.delayHistogram::bucket_size          512                       # delay histogram for all message (Unspecified)
board.cache_hierarchy.ruby_system.delayHistogram::max_bucket         5119                       # delay histogram for all message (Unspecified)
board.cache_hierarchy.ruby_system.delayHistogram::samples       151665                       # delay histogram for all message (Unspecified)
board.cache_hierarchy.ruby_system.delayHistogram::mean   683.792239                       # delay histogram for all message (Unspecified)
board.cache_hierarchy.ruby_system.delayHistogram::stdev  1565.084689                       # delay histogram for all message (Unspecified)
board.cache_hierarchy.ruby_system.delayHistogram |      127717     84.21%     84.21% |         251      0.17%     84.38% |         230      0.15%     84.53% |         291      0.19%     84.72% |         460      0.30%     85.02% |         121      0.08%     85.10% |         791      0.52%     85.62% |        1815      1.20%     86.82% |       15035      9.91%     96.73% |        4954      3.27%    100.00% # delay histogram for all message (Unspecified)
board.cache_hierarchy.ruby_system.delayHistogram::total       151665                       # delay histogram for all message (Unspecified)
board.cache_hierarchy.ruby_system.m_outstandReqHistSeqr::bucket_size            2                       (Unspecified)
board.cache_hierarchy.ruby_system.m_outstandReqHistSeqr::max_bucket           19                       (Unspecified)
board.cache_hierarchy.ruby_system.m_outstandReqHistSeqr::samples      1070317                       (Unspecified)
board.cache_hierarchy.ruby_system.m_outstandReqHistSeqr::mean     1.237434                       (Unspecified)
board.cache_hierarchy.ruby_system.m_outstandReqHistSeqr::gmean     1.161870                       (Unspecified)
board.cache_hierarchy.ruby_system.m_outstandReqHistSeqr::stdev     0.547523                       (Unspecified)
board.cache_hierarchy.ruby_system.m_outstandReqHistSeqr |      866695     80.98%     80.98% |      199595     18.65%     99.62% |        3584      0.33%     99.96% |         285      0.03%     99.99% |          60      0.01%     99.99% |          44      0.00%     99.99% |          34      0.00%    100.00% |          15      0.00%    100.00% |           5      0.00%    100.00% |           0      0.00%    100.00% (Unspecified)
board.cache_hierarchy.ruby_system.m_outstandReqHistSeqr::total      1070317                       (Unspecified)
board.cache_hierarchy.ruby_system.m_latencyHistSeqr::bucket_size          256                       (Unspecified)
board.cache_hierarchy.ruby_system.m_latencyHistSeqr::max_bucket         2559                       (Unspecified)
board.cache_hierarchy.ruby_system.m_latencyHistSeqr::samples      1070959                       (Unspecified)
board.cache_hierarchy.ruby_system.m_latencyHistSeqr::mean    22.825894                       (Unspecified)
board.cache_hierarchy.ruby_system.m_latencyHistSeqr::gmean     1.249694                       (Unspecified)
board.cache_hierarchy.ruby_system.m_latencyHistSeqr::stdev   130.154412                       (Unspecified)
board.cache_hierarchy.ruby_system.m_latencyHistSeqr |     1039734     97.08%     97.08% |        7597      0.71%     97.79% |        1752      0.16%     97.96% |       21864      2.04%    100.00% |           8      0.00%    100.00% |           4      0.00%    100.00% |           0      0.00%    100.00% |           0      0.00%    100.00% |           0      0.00%    100.00% |           0      0.00%    100.00% (Unspecified)
board.cache_hierarchy.ruby_system.m_latencyHistSeqr::total      1070959                       (Unspecified)
board.cache_hierarchy.ruby_system.m_hitLatencyHistSeqr::bucket_size           32                       (Unspecified)
board.cache_hierarchy.ruby_system.m_hitLatencyHistSeqr::max_bucket          319                       (Unspecified)
board.cache_hierarchy.ruby_system.m_hitLatencyHistSeqr::samples      1031454                       (Unspecified)
board.cache_hierarchy.ruby_system.m_hitLatencyHistSeqr::mean     1.001271                       (Unspecified)
board.cache_hierarchy.ruby_system.m_hitLatencyHistSeqr::gmean     1.000452                       (Unspecified)
board.cache_hierarchy.ruby_system.m_hitLatencyHistSeqr::stdev     0.339551                       (Unspecified)
board.cache_hierarchy.ruby_system.m_hitLatencyHistSeqr |     1031450    100.00%    100.00% |           0      0.00%    100.00% |           0      0.00%    100.00% |           1      0.00%    100.00% |           0      0.00%    100.00% |           2      0.00%    100.00% |           1      0.00%    100.00% |           0      0.00%    100.00% |           0      0.00%    100.00% |           0      0.00%    100.00% (Unspecified)
board.cache_hierarchy.ruby_system.m_hitLatencyHistSeqr::total      1031454                       (Unspecified)
board.cache_hierarchy.ruby_system.m_missLatencyHistSeqr::bucket_size          256                       (Unspecified)
board.cache_hierarchy.ruby_system.m_missLatencyHistSeqr::max_bucket         2559                       (Unspecified)
board.cache_hierarchy.ruby_system.m_missLatencyHistSeqr::samples        39505                       (Unspecified)
board.cache_hierarchy.ruby_system.m_missLatencyHistSeqr::mean   592.654904                       (Unspecified)
board.cache_hierarchy.ruby_system.m_missLatencyHistSeqr::gmean   416.072821                       (Unspecified)
board.cache_hierarchy.ruby_system.m_missLatencyHistSeqr::stdev   349.423865                       (Unspecified)
board.cache_hierarchy.ruby_system.m_missLatencyHistSeqr |        8280     20.96%     20.96% |        7597     19.23%     40.19% |        1752      4.43%     44.62% |       21864     55.34%     99.97% |           8      0.02%     99.99% |           4      0.01%    100.00% |           0      0.00%    100.00% |           0      0.00%    100.00% |           0      0.00%    100.00% |           0      0.00%    100.00% (Unspecified)
board.cache_hierarchy.ruby_system.m_missLatencyHistSeqr::total        39505                       (Unspecified)
board.cache_hierarchy.ruby_system.delayVCHist.vnet_0::bucket_size          512                       # delay histogram for vnet_0 (Unspecified)
board.cache_hierarchy.ruby_system.delayVCHist.vnet_0::max_bucket         5119                       # delay histogram for vnet_0 (Unspecified)
board.cache_hierarchy.ruby_system.delayVCHist.vnet_0::samples        76150                       # delay histogram for vnet_0 (Unspecified)
board.cache_hierarchy.ruby_system.delayVCHist.vnet_0::mean  1361.817859                       # delay histogram for vnet_0 (Unspecified)
board.cache_hierarchy.ruby_system.delayVCHist.vnet_0::stdev  1988.786149                       # delay histogram for vnet_0 (Unspecified)
board.cache_hierarchy.ruby_system.delayVCHist.vnet_0 |       52202     68.55%     68.55% |         251      0.33%     68.88% |         230      0.30%     69.18% |         291      0.38%     69.57% |         460      0.60%     70.17% |         121      0.16%     70.33% |         791      1.04%     71.37% |        1815      2.38%     73.75% |       15035     19.74%     93.49% |        4954      6.51%    100.00% # delay histogram for vnet_0 (Unspecified)
board.cache_hierarchy.ruby_system.delayVCHist.vnet_0::total        76150                       # delay histogram for vnet_0 (Unspecified)
board.cache_hierarchy.ruby_system.delayVCHist.vnet_1::bucket_size            2                       # delay histogram for vnet_1 (Unspecified)
board.cache_hierarchy.ruby_system.delayVCHist.vnet_1::max_bucket           19                       # delay histogram for vnet_1 (Unspecified)
board.cache_hierarchy.ruby_system.delayVCHist.vnet_1::samples        41870                       # delay histogram for vnet_1 (Unspecified)
board.cache_hierarchy.ruby_system.delayVCHist.vnet_1::mean     0.117459                       # delay histogram for vnet_1 (Unspecified)
board.cache_hierarchy.ruby_system.delayVCHist.vnet_1::stdev     0.997098                       # delay histogram for vnet_1 (Unspecified)
board.cache_hierarchy.ruby_system.delayVCHist.vnet_1 |       41137     98.25%     98.25% |         105      0.25%     98.50% |         172      0.41%     98.91% |          56      0.13%     99.04% |         322      0.77%     99.81% |          17      0.04%     99.85% |          15      0.04%     99.89% |           3      0.01%     99.90% |          29      0.07%     99.97% |          14      0.03%    100.00% # delay histogram for vnet_1 (Unspecified)
board.cache_hierarchy.ruby_system.delayVCHist.vnet_1::total        41870                       # delay histogram for vnet_1 (Unspecified)
board.cache_hierarchy.ruby_system.delayVCHist.vnet_2::bucket_size            1                       # delay histogram for vnet_2 (Unspecified)
board.cache_hierarchy.ruby_system.delayVCHist.vnet_2::max_bucket            9                       # delay histogram for vnet_2 (Unspecified)
board.cache_hierarchy.ruby_system.delayVCHist.vnet_2::samples        33645                       # delay histogram for vnet_2 (Unspecified)
board.cache_hierarchy.ruby_system.delayVCHist.vnet_2::mean     0.000059                       # delay histogram for vnet_2 (Unspecified)
board.cache_hierarchy.ruby_system.delayVCHist.vnet_2::stdev     0.010904                       # delay histogram for vnet_2 (Unspecified)
board.cache_hierarchy.ruby_system.delayVCHist.vnet_2 |       33644    100.00%    100.00% |           0      0.00%    100.00% |           1      0.00%    100.00% |           0      0.00%    100.00% |           0      0.00%    100.00% |           0      0.00%    100.00% |           0      0.00%    100.00% |           0      0.00%    100.00% |           0      0.00%    100.00% |           0      0.00%    100.00% # delay histogram for vnet_2 (Unspecified)
board.cache_hierarchy.ruby_system.delayVCHist.vnet_2::total        33645                       # delay histogram for vnet_2 (Unspecified)
board.cache_hierarchy.ruby_system.Directory_Controller.Fetch         1143      0.00%      0.00% (Unspecified)
board.cache_hierarchy.ruby_system.Directory_Controller.Memory_Data         1143      0.00%      0.00% (Unspecified)
board.cache_hierarchy.ruby_system.Directory_Controller.I.Fetch         1143      0.00%      0.00% (Unspecified)
board.cache_hierarchy.ruby_system.Directory_Controller.IM.Memory_Data         1143      0.00%      0.00% (Unspecified)
board.cache_hierarchy.ruby_system.L1Cache_Controller.Load |       14129      4.03%      4.03% |       21049      6.00%     10.03% |       21025      6.00%     16.03% |       21031      6.00%     22.03% |       21021      6.00%     28.02% |       21041      6.00%     34.02% |       21027      6.00%     40.02% |       21021      6.00%     46.01% |       21034      6.00%     52.01% |       21032      6.00%     58.01% |       21029      6.00%     64.01% |       21019      5.99%     70.00% |       21040      6.00%     76.00% |       21038      6.00%     82.00% |       21031      6.00%     88.00% |       21031      6.00%     94.00% |       21038      6.00%    100.00% (Unspecified)
board.cache_hierarchy.ruby_system.L1Cache_Controller.Load::total       350636                       (Unspecified)
board.cache_hierarchy.ruby_system.L1Cache_Controller.Ifetch |       20736      4.86%      4.86% |       25323      5.93%     10.79% |       25350      5.94%     16.73% |       25372      5.94%     22.67% |       25355      5.94%     28.61% |       25381      5.95%     34.56% |       25355      5.94%     40.50% |       25366      5.94%     46.44% |       25366      5.94%     52.38% |       25389      5.95%     58.33% |       25382      5.95%     64.28% |       25358      5.94%     70.22% |       25443      5.96%     76.18% |       25395      5.95%     82.13% |       25440      5.96%     88.09% |       25388      5.95%     94.04% |       25455      5.96%    100.00% (Unspecified)
board.cache_hierarchy.ruby_system.L1Cache_Controller.Ifetch::total       426854                       (Unspecified)
board.cache_hierarchy.ruby_system.L1Cache_Controller.Store |       22828      7.78%      7.78% |       16842      5.74%     13.52% |       16842      5.74%     19.26% |       16842      5.74%     25.00% |       16842      5.74%     30.73% |       16842      5.74%     36.47% |       16842      5.74%     42.21% |       16842      5.74%     47.95% |       16842      5.74%     53.69% |       16842      5.74%     59.43% |       16842      5.74%     65.17% |       16842      5.74%     70.91% |       17134      5.84%     76.75% |       17134      5.84%     82.58% |       17134      5.84%     88.42% |       16842      5.74%     94.16% |       17134      5.84%    100.00% (Unspecified)
board.cache_hierarchy.ruby_system.L1Cache_Controller.Store::total       293468                       (Unspecified)
board.cache_hierarchy.ruby_system.L1Cache_Controller.Inv |          84     31.82%     31.82% |          10      3.79%     35.61% |          10      3.79%     39.39% |          11      4.17%     43.56% |          11      4.17%     47.73% |          12      4.55%     52.27% |          10      3.79%     56.06% |          12      4.55%     60.61% |          13      4.92%     65.53% |          13      4.92%     70.45% |          11      4.17%     74.62% |          11      4.17%     78.79% |           8      3.03%     81.82% |          12      4.55%     86.36% |          11      4.17%     90.53% |          13      4.92%     95.45% |          12      4.55%    100.00% (Unspecified)
board.cache_hierarchy.ruby_system.L1Cache_Controller.Inv::total          264                       (Unspecified)
board.cache_hierarchy.ruby_system.L1Cache_Controller.L1_Replacement |         862     99.54%     99.54% |           0      0.00%     99.54% |           0      0.00%     99.54% |           0      0.00%     99.54% |           0      0.00%     99.54% |           2      0.23%     99.77% |           0      0.00%     99.77% |           0      0.00%     99.77% |           0      0.00%     99.77% |           2      0.23%    100.00% |           0      0.00%    100.00% |           0      0.00%    100.00% |           0      0.00%    100.00% |           0      0.00%    100.00% |           0      0.00%    100.00% |           0      0.00%    100.00% |           0      0.00%    100.00% (Unspecified)
board.cache_hierarchy.ruby_system.L1Cache_Controller.L1_Replacement::total          866                       (Unspecified)
board.cache_hierarchy.ruby_system.L1Cache_Controller.Fwd_GETX |          37      0.11%      0.11% |        1997      6.09%      6.21% |        2057      6.28%     12.48% |        2061      6.29%     18.77% |        2061      6.29%     25.06% |        2061      6.29%     31.35% |        2061      6.29%     37.64% |        2061      6.29%     43.93% |        2061      6.29%     50.21% |        2049      6.25%     56.47% |        2050      6.25%     62.72% |        2050      6.25%     68.98% |        2042      6.23%     75.21% |        1970      6.01%     81.22% |        2062      6.29%     87.51% |        2060      6.29%     93.79% |        2034      6.21%    100.00% (Unspecified)
board.cache_hierarchy.ruby_system.L1Cache_Controller.Fwd_GETX::total        32774                       (Unspecified)
board.cache_hierarchy.ruby_system.L1Cache_Controller.Fwd_GETS |         410     67.55%     67.55% |          17      2.80%     70.35% |          13      2.14%     72.49% |          13      2.14%     74.63% |          13      2.14%     76.77% |          13      2.14%     78.91% |          14      2.31%     81.22% |          14      2.31%     83.53% |          13      2.14%     85.67% |           9      1.48%     87.15% |           9      1.48%     88.63% |           8      1.32%     89.95% |          10      1.65%     91.60% |          17      2.80%     94.40% |          11      1.81%     96.21% |          10      1.65%     97.86% |          13      2.14%    100.00% (Unspecified)
board.cache_hierarchy.ruby_system.L1Cache_Controller.Fwd_GETS::total          607                       (Unspecified)
board.cache_hierarchy.ruby_system.L1Cache_Controller.Data |           0      0.00%      0.00% |           0      0.00%      0.00% |           0      0.00%      0.00% |           0      0.00%      0.00% |           0      0.00%      0.00% |           0      0.00%      0.00% |           0      0.00%      0.00% |           0      0.00%      0.00% |           0      0.00%      0.00% |           0      0.00%      0.00% |           1     33.33%     33.33% |           0      0.00%     33.33% |           1     33.33%     66.67% |           0      0.00%     66.67% |           1     33.33%    100.00% |           0      0.00%    100.00% |           0      0.00%    100.00% (Unspecified)
board.cache_hierarchy.ruby_system.L1Cache_Controller.Data::total            3                       (Unspecified)
board.cache_hierarchy.ruby_system.L1Cache_Controller.Data_Exclusive |          68      3.51%      3.51% |         138      7.12%     10.63% |         132      6.81%     17.44% |         132      6.81%     24.25% |         133      6.86%     31.11% |         132      6.81%     37.93% |         134      6.91%     44.84% |         133      6.86%     51.70% |         132      6.81%     58.51% |         132      6.81%     65.33% |         133      6.86%     72.19% |         132      6.81%     79.00% |         132      6.81%     85.81% |         127      6.55%     92.36% |          73      3.77%     96.13% |          35      1.81%     97.94% |          40      2.06%    100.00% (Unspecified)
board.cache_hierarchy.ruby_system.L1Cache_Controller.Data_Exclusive::total         1938                       (Unspecified)
board.cache_hierarchy.ruby_system.L1Cache_Controller.DataS_fromL1 |          51      8.40%      8.40% |          20      3.29%     11.70% |          21      3.46%     15.16% |          19      3.13%     18.29% |          19      3.13%     21.42% |          19      3.13%     24.55% |          17      2.80%     27.35% |          19      3.13%     30.48% |          21      3.46%     33.94% |          21      3.46%     37.40% |          19      3.13%     40.53% |          19      3.13%     43.66% |          14      2.31%     45.96% |          25      4.12%     50.08% |          75     12.36%     62.44% |         121     19.93%     82.37% |         107     17.63%    100.00% (Unspecified)
board.cache_hierarchy.ruby_system.L1Cache_Controller.DataS_fromL1::total          607                       (Unspecified)
board.cache_hierarchy.ruby_system.L1Cache_Controller.Data_all_Acks |         775      2.11%      2.11% |        2174      5.92%      8.03% |        2237      6.09%     14.12% |        2245      6.11%     20.23% |        2244      6.11%     26.34% |        2252      6.13%     32.47% |        2246      6.11%     38.59% |        2246      6.11%     44.70% |        2245      6.11%     50.81% |        2252      6.13%     56.94% |        2245      6.11%     63.06% |        2246      6.11%     69.17% |        2300      6.26%     75.43% |        2205      6.00%     81.44% |        2302      6.27%     87.70% |        2239      6.10%     93.80% |        2278      6.20%    100.00% (Unspecified)
board.cache_hierarchy.ruby_system.L1Cache_Controller.Data_all_Acks::total        36731                       (Unspecified)
board.cache_hierarchy.ruby_system.L1Cache_Controller.Ack |          38     14.56%     14.56% |          13      4.98%     19.54% |          14      5.36%     24.90% |          13      4.98%     29.89% |          13      4.98%     34.87% |          12      4.60%     39.46% |          14      5.36%     44.83% |          15      5.75%     50.57% |          13      4.98%     55.56% |          18      6.90%     62.45% |          18      6.90%     69.35% |          14      5.36%     74.71% |          21      8.05%     82.76% |          10      3.83%     86.59% |          12      4.60%     91.19% |          14      5.36%     96.55% |           9      3.45%    100.00% (Unspecified)
board.cache_hierarchy.ruby_system.L1Cache_Controller.Ack::total          261                       (Unspecified)
board.cache_hierarchy.ruby_system.L1Cache_Controller.Ack_all |          34     14.85%     14.85% |          13      5.68%     20.52% |          13      5.68%     26.20% |          13      5.68%     31.88% |          13      5.68%     37.55% |          12      5.24%     42.79% |          13      5.68%     48.47% |          14      6.11%     54.59% |          13      5.68%     60.26% |          13      5.68%     65.94% |          14      6.11%     72.05% |          12      5.24%     77.29% |          10      4.37%     81.66% |          10      4.37%     86.03% |          11      4.80%     90.83% |          13      5.68%     96.51% |           8      3.49%    100.00% (Unspecified)
board.cache_hierarchy.ruby_system.L1Cache_Controller.Ack_all::total          229                       (Unspecified)
board.cache_hierarchy.ruby_system.L1Cache_Controller.WB_Ack |         351    100.00%    100.00% |           0      0.00%    100.00% |           0      0.00%    100.00% |           0      0.00%    100.00% |           0      0.00%    100.00% |           0      0.00%    100.00% |           0      0.00%    100.00% |           0      0.00%    100.00% |           0      0.00%    100.00% |           0      0.00%    100.00% |           0      0.00%    100.00% |           0      0.00%    100.00% |           0      0.00%    100.00% |           0      0.00%    100.00% |           0      0.00%    100.00% |           0      0.00%    100.00% |           0      0.00%    100.00% (Unspecified)
board.cache_hierarchy.ruby_system.L1Cache_Controller.WB_Ack::total          351                       (Unspecified)
board.cache_hierarchy.ruby_system.L1Cache_Controller.NP.Load |         126      4.64%      4.64% |         163      6.01%     10.65% |         162      5.97%     16.62% |         163      6.01%     22.63% |         163      6.01%     28.64% |         163      6.01%     34.65% |         163      6.01%     40.66% |         163      6.01%     46.66% |         162      5.97%     52.64% |         163      6.01%     58.64% |         163      6.01%     64.65% |         162      5.97%     70.62% |         158      5.82%     76.45% |         158      5.82%     82.27% |         159      5.86%     88.13% |         163      6.01%     94.14% |         159      5.86%    100.00% (Unspecified)
board.cache_hierarchy.ruby_system.L1Cache_Controller.NP.Load::total         2713                       (Unspecified)
board.cache_hierarchy.ruby_system.L1Cache_Controller.NP.Ifetch |         341     11.44%     11.44% |         158      5.30%     16.74% |         157      5.27%     22.01% |         158      5.30%     27.32% |         158      5.30%     32.62% |         164      5.50%     38.12% |         159      5.34%     43.46% |         159      5.34%     48.79% |         159      5.34%     54.13% |         162      5.44%     59.56% |         158      5.30%     64.87% |         157      5.27%     70.13% |         184      6.17%     76.31% |         182      6.11%     82.42% |         183      6.14%     88.56% |         158      5.30%     93.86% |         183      6.14%    100.00% (Unspecified)
board.cache_hierarchy.ruby_system.L1Cache_Controller.NP.Ifetch::total         2980                       (Unspecified)
board.cache_hierarchy.ruby_system.L1Cache_Controller.NP.Store |         395     41.23%     41.23% |          27      2.82%     44.05% |          27      2.82%     46.87% |          27      2.82%     49.69% |          27      2.82%     52.51% |          27      2.82%     55.32% |          27      2.82%     58.14% |          27      2.82%     60.96% |          27      2.82%     63.78% |          27      2.82%     66.60% |          26      2.71%     69.31% |          27      2.82%     72.13% |          61      6.37%     78.50% |          60      6.26%     84.76% |          60      6.26%     91.02% |          26      2.71%     93.74% |          60      6.26%    100.00% (Unspecified)
board.cache_hierarchy.ruby_system.L1Cache_Controller.NP.Store::total          958                       (Unspecified)
board.cache_hierarchy.ruby_system.L1Cache_Controller.NP.Inv |          10    100.00%    100.00% |           0      0.00%    100.00% |           0      0.00%    100.00% |           0      0.00%    100.00% |           0      0.00%    100.00% |           0      0.00%    100.00% |           0      0.00%    100.00% |           0      0.00%    100.00% |           0      0.00%    100.00% |           0      0.00%    100.00% |           0      0.00%    100.00% |           0      0.00%    100.00% |           0      0.00%    100.00% |           0      0.00%    100.00% |           0      0.00%    100.00% |           0      0.00%    100.00% |           0      0.00%    100.00% (Unspecified)
board.cache_hierarchy.ruby_system.L1Cache_Controller.NP.Inv::total           10                       (Unspecified)
board.cache_hierarchy.ruby_system.L1Cache_Controller.I.Load |          30     48.39%     48.39% |           1      1.61%     50.00% |           1      1.61%     51.61% |           1      1.61%     53.23% |           1      1.61%     54.84% |           1      1.61%     56.45% |           1      1.61%     58.06% |           2      3.23%     61.29% |           3      4.84%     66.13% |           6      9.68%     75.81% |           3      4.84%     80.65% |           3      4.84%     85.48% |           2      3.23%     88.71% |           0      0.00%     88.71% |           3      4.84%     93.55% |           3      4.84%     98.39% |           1      1.61%    100.00% (Unspecified)
board.cache_hierarchy.ruby_system.L1Cache_Controller.I.Load::total           62                       (Unspecified)
board.cache_hierarchy.ruby_system.L1Cache_Controller.I.Store |           1      0.00%      0.00% |        1983      6.09%      6.09% |        2043      6.27%     12.37% |        2047      6.29%     18.65% |        2047      6.29%     24.94% |        2048      6.29%     31.23% |        2047      6.29%     37.51% |        2047      6.29%     43.80% |        2047      6.29%     50.08% |        2047      6.29%     56.37% |        2048      6.29%     62.66% |        2048      6.29%     68.95% |        2042      6.27%     75.22% |        1957      6.01%     81.23% |        2046      6.28%     87.51% |        2045      6.28%     93.79% |        2022      6.21%    100.00% (Unspecified)
board.cache_hierarchy.ruby_system.L1Cache_Controller.I.Store::total        32565                       (Unspecified)
board.cache_hierarchy.ruby_system.L1Cache_Controller.I.L1_Replacement |          58    100.00%    100.00% |           0      0.00%    100.00% |           0      0.00%    100.00% |           0      0.00%    100.00% |           0      0.00%    100.00% |           0      0.00%    100.00% |           0      0.00%    100.00% |           0      0.00%    100.00% |           0      0.00%    100.00% |           0      0.00%    100.00% |           0      0.00%    100.00% |           0      0.00%    100.00% |           0      0.00%    100.00% |           0      0.00%    100.00% |           0      0.00%    100.00% |           0      0.00%    100.00% |           0      0.00%    100.00% (Unspecified)
board.cache_hierarchy.ruby_system.L1Cache_Controller.I.L1_Replacement::total           58                       (Unspecified)
board.cache_hierarchy.ruby_system.L1Cache_Controller.S.Load |         264      5.01%      5.01% |          67      1.27%      6.28% |          76      1.44%      7.72% |          68      1.29%      9.01% |          69      1.31%     10.32% |          75      1.42%     11.74% |          69      1.31%     13.05% |          72      1.37%     14.41% |          87      1.65%     16.06% |          93      1.76%     17.83% |          92      1.74%     19.57% |          86      1.63%     21.20% |          67      1.27%     22.47% |         167      3.17%     25.64% |         956     18.13%     43.77% |        1522     28.86%     72.63% |        1443     27.37%    100.00% (Unspecified)
board.cache_hierarchy.ruby_system.L1Cache_Controller.S.Load::total         5273                       (Unspecified)
board.cache_hierarchy.ruby_system.L1Cache_Controller.S.Ifetch |       20395      4.81%      4.81% |       25165      5.94%     10.75% |       25193      5.94%     16.69% |       25214      5.95%     22.64% |       25197      5.94%     28.58% |       25217      5.95%     34.53% |       25196      5.94%     40.48% |       25207      5.95%     46.43% |       25207      5.95%     52.37% |       25227      5.95%     58.32% |       25224      5.95%     64.27% |       25201      5.95%     70.22% |       25259      5.96%     76.18% |       25213      5.95%     82.13% |       25257      5.96%     88.09% |       25230      5.95%     94.04% |       25272      5.96%    100.00% (Unspecified)
board.cache_hierarchy.ruby_system.L1Cache_Controller.S.Ifetch::total       423874                       (Unspecified)
board.cache_hierarchy.ruby_system.L1Cache_Controller.S.Store |          34     15.04%     15.04% |          13      5.75%     20.80% |          13      5.75%     26.55% |          13      5.75%     32.30% |          13      5.75%     38.05% |          12      5.31%     43.36% |          13      5.75%     49.12% |          14      6.19%     55.31% |          13      5.75%     61.06% |          13      5.75%     66.81% |          13      5.75%     72.57% |          12      5.31%     77.88% |           9      3.98%     81.86% |          10      4.42%     86.28% |          10      4.42%     90.71% |          13      5.75%     96.46% |           8      3.54%    100.00% (Unspecified)
board.cache_hierarchy.ruby_system.L1Cache_Controller.S.Store::total          226                       (Unspecified)
board.cache_hierarchy.ruby_system.L1Cache_Controller.S.Inv |          74     29.13%     29.13% |          10      3.94%     33.07% |          10      3.94%     37.01% |          11      4.33%     41.34% |          11      4.33%     45.67% |          12      4.72%     50.39% |          10      3.94%     54.33% |          12      4.72%     59.06% |          13      5.12%     64.17% |          13      5.12%     69.29% |          11      4.33%     73.62% |          11      4.33%     77.95% |           8      3.15%     81.10% |          12      4.72%     85.83% |          11      4.33%     90.16% |          13      5.12%     95.28% |          12      4.72%    100.00% (Unspecified)
board.cache_hierarchy.ruby_system.L1Cache_Controller.S.Inv::total          254                       (Unspecified)
board.cache_hierarchy.ruby_system.L1Cache_Controller.S.L1_Replacement |         453     99.12%     99.12% |           0      0.00%     99.12% |           0      0.00%     99.12% |           0      0.00%     99.12% |           0      0.00%     99.12% |           2      0.44%     99.56% |           0      0.00%     99.56% |           0      0.00%     99.56% |           0      0.00%     99.56% |           2      0.44%    100.00% |           0      0.00%    100.00% |           0      0.00%    100.00% |           0      0.00%    100.00% |           0      0.00%    100.00% |           0      0.00%    100.00% |           0      0.00%    100.00% |           0      0.00%    100.00% (Unspecified)
board.cache_hierarchy.ruby_system.L1Cache_Controller.S.L1_Replacement::total          457                       (Unspecified)
board.cache_hierarchy.ruby_system.L1Cache_Controller.E.Load |        1575      5.54%      5.54% |        1919      6.75%     12.29% |        1916      6.74%     19.03% |        1916      6.74%     25.77% |        1916      6.74%     32.51% |        1916      6.74%     39.25% |        1920      6.75%     46.01% |        1916      6.74%     52.75% |        1916      6.74%     59.49% |        1916      6.74%     66.23% |        1916      6.74%     72.97% |        1916      6.74%     79.71% |        1916      6.74%     86.45% |        1811      6.37%     92.82% |        1035      3.64%     96.46% |         465      1.64%     98.10% |         540      1.90%    100.00% (Unspecified)
board.cache_hierarchy.ruby_system.L1Cache_Controller.E.Load::total        28425                       (Unspecified)
board.cache_hierarchy.ruby_system.L1Cache_Controller.E.Store |          16     80.00%     80.00% |           0      0.00%     80.00% |           0      0.00%     80.00% |           0      0.00%     80.00% |           0      0.00%     80.00% |           0      0.00%     80.00% |           0      0.00%     80.00% |           0      0.00%     80.00% |           0      0.00%     80.00% |           0      0.00%     80.00% |           1      5.00%     85.00% |           0      0.00%     85.00% |           0      0.00%     85.00% |           0      0.00%     85.00% |           1      5.00%     90.00% |           1      5.00%     95.00% |           1      5.00%    100.00% (Unspecified)
board.cache_hierarchy.ruby_system.L1Cache_Controller.E.Store::total           20                       (Unspecified)
board.cache_hierarchy.ruby_system.L1Cache_Controller.E.L1_Replacement |          12    100.00%    100.00% |           0      0.00%    100.00% |           0      0.00%    100.00% |           0      0.00%    100.00% |           0      0.00%    100.00% |           0      0.00%    100.00% |           0      0.00%    100.00% |           0      0.00%    100.00% |           0      0.00%    100.00% |           0      0.00%    100.00% |           0      0.00%    100.00% |           0      0.00%    100.00% |           0      0.00%    100.00% |           0      0.00%    100.00% |           0      0.00%    100.00% |           0      0.00%    100.00% |           0      0.00%    100.00% (Unspecified)
board.cache_hierarchy.ruby_system.L1Cache_Controller.E.L1_Replacement::total           12                       (Unspecified)
board.cache_hierarchy.ruby_system.L1Cache_Controller.E.Fwd_GETS |           6     15.38%     15.38% |           6     15.38%     30.77% |           2      5.13%     35.90% |           2      5.13%     41.03% |           2      5.13%     46.15% |           2      5.13%     51.28% |           3      7.69%     58.97% |           2      5.13%     64.10% |           2      5.13%     69.23% |           2      5.13%     74.36% |           2      5.13%     79.49% |           2      5.13%     84.62% |           2      5.13%     89.74% |           4     10.26%    100.00% |           0      0.00%    100.00% |           0      0.00%    100.00% |           0      0.00%    100.00% (Unspecified)
board.cache_hierarchy.ruby_system.L1Cache_Controller.E.Fwd_GETS::total           39                       (Unspecified)
board.cache_hierarchy.ruby_system.L1Cache_Controller.M.Load |       12134      3.86%      3.86% |       18899      6.02%      9.88% |       18870      6.01%     15.88% |       18883      6.01%     21.90% |       18872      6.01%     27.90% |       18886      6.01%     33.91% |       18874      6.01%     39.92% |       18868      6.01%     45.93% |       18866      6.01%     51.93% |       18854      6.00%     57.93% |       18855      6.00%     63.94% |       18852      6.00%     69.94% |       18897      6.02%     75.95% |       18902      6.02%     81.97% |       18878      6.01%     87.98% |       18878      6.01%     93.99% |       18895      6.01%    100.00% (Unspecified)
board.cache_hierarchy.ruby_system.L1Cache_Controller.M.Load::total       314163                       (Unspecified)
board.cache_hierarchy.ruby_system.L1Cache_Controller.M.Store |       22382      8.62%      8.62% |       14819      5.71%     14.32% |       14759      5.68%     20.01% |       14755      5.68%     25.69% |       14755      5.68%     31.37% |       14755      5.68%     37.05% |       14755      5.68%     42.73% |       14754      5.68%     48.42% |       14755      5.68%     54.10% |       14755      5.68%     59.78% |       14754      5.68%     65.46% |       14755      5.68%     71.14% |       15022      5.78%     76.93% |       15107      5.82%     82.74% |       15017      5.78%     88.53% |       14757      5.68%     94.21% |       15043      5.79%    100.00% (Unspecified)
board.cache_hierarchy.ruby_system.L1Cache_Controller.M.Store::total       259699                       (Unspecified)
board.cache_hierarchy.ruby_system.L1Cache_Controller.M.L1_Replacement |         339    100.00%    100.00% |           0      0.00%    100.00% |           0      0.00%    100.00% |           0      0.00%    100.00% |           0      0.00%    100.00% |           0      0.00%    100.00% |           0      0.00%    100.00% |           0      0.00%    100.00% |           0      0.00%    100.00% |           0      0.00%    100.00% |           0      0.00%    100.00% |           0      0.00%    100.00% |           0      0.00%    100.00% |           0      0.00%    100.00% |           0      0.00%    100.00% |           0      0.00%    100.00% |           0      0.00%    100.00% (Unspecified)
board.cache_hierarchy.ruby_system.L1Cache_Controller.M.L1_Replacement::total          339                       (Unspecified)
board.cache_hierarchy.ruby_system.L1Cache_Controller.M.Fwd_GETX |          37      0.11%      0.11% |        1997      6.09%      6.21% |        2057      6.28%     12.48% |        2061      6.29%     18.77% |        2061      6.29%     25.06% |        2061      6.29%     31.35% |        2061      6.29%     37.64% |        2061      6.29%     43.93% |        2061      6.29%     50.21% |        2049      6.25%     56.47% |        2050      6.25%     62.72% |        2050      6.25%     68.98% |        2042      6.23%     75.21% |        1970      6.01%     81.22% |        2062      6.29%     87.51% |        2060      6.29%     93.79% |        2034      6.21%    100.00% (Unspecified)
board.cache_hierarchy.ruby_system.L1Cache_Controller.M.Fwd_GETX::total        32774                       (Unspecified)
board.cache_hierarchy.ruby_system.L1Cache_Controller.M.Fwd_GETS |         404     71.13%     71.13% |          11      1.94%     73.06% |          11      1.94%     75.00% |          11      1.94%     76.94% |          11      1.94%     78.87% |          11      1.94%     80.81% |          11      1.94%     82.75% |          12      2.11%     84.86% |          11      1.94%     86.80% |           7      1.23%     88.03% |           7      1.23%     89.26% |           6      1.06%     90.32% |           8      1.41%     91.73% |          13      2.29%     94.01% |          11      1.94%     95.95% |          10      1.76%     97.71% |          13      2.29%    100.00% (Unspecified)
board.cache_hierarchy.ruby_system.L1Cache_Controller.M.Fwd_GETS::total          568                       (Unspecified)
board.cache_hierarchy.ruby_system.L1Cache_Controller.IS.Data_Exclusive |          68      3.51%      3.51% |         138      7.12%     10.63% |         132      6.81%     17.44% |         132      6.81%     24.25% |         133      6.86%     31.11% |         132      6.81%     37.93% |         134      6.91%     44.84% |         133      6.86%     51.70% |         132      6.81%     58.51% |         132      6.81%     65.33% |         133      6.86%     72.19% |         132      6.81%     79.00% |         132      6.81%     85.81% |         127      6.55%     92.36% |          73      3.77%     96.13% |          35      1.81%     97.94% |          40      2.06%    100.00% (Unspecified)
board.cache_hierarchy.ruby_system.L1Cache_Controller.IS.Data_Exclusive::total         1938                       (Unspecified)
board.cache_hierarchy.ruby_system.L1Cache_Controller.IS.DataS_fromL1 |          51      8.40%      8.40% |          20      3.29%     11.70% |          21      3.46%     15.16% |          19      3.13%     18.29% |          19      3.13%     21.42% |          19      3.13%     24.55% |          17      2.80%     27.35% |          19      3.13%     30.48% |          21      3.46%     33.94% |          21      3.46%     37.40% |          19      3.13%     40.53% |          19      3.13%     43.66% |          14      2.31%     45.96% |          25      4.12%     50.08% |          75     12.36%     62.44% |         121     19.93%     82.37% |         107     17.63%    100.00% (Unspecified)
board.cache_hierarchy.ruby_system.L1Cache_Controller.IS.DataS_fromL1::total          607                       (Unspecified)
board.cache_hierarchy.ruby_system.L1Cache_Controller.IS.Data_all_Acks |         379     11.80%     11.80% |         164      5.11%     16.91% |         167      5.20%     22.11% |         171      5.33%     27.44% |         170      5.29%     32.73% |         177      5.51%     38.24% |         172      5.36%     43.60% |         172      5.36%     48.96% |         171      5.33%     54.28% |         178      5.54%     59.83% |         172      5.36%     65.18% |         171      5.33%     70.51% |         198      6.17%     76.67% |         188      5.85%     82.53% |         197      6.14%     88.66% |         168      5.23%     93.90% |         196      6.10%    100.00% (Unspecified)
board.cache_hierarchy.ruby_system.L1Cache_Controller.IS.Data_all_Acks::total         3211                       (Unspecified)
board.cache_hierarchy.ruby_system.L1Cache_Controller.IM.Data |           0      0.00%      0.00% |           0      0.00%      0.00% |           0      0.00%      0.00% |           0      0.00%      0.00% |           0      0.00%      0.00% |           0      0.00%      0.00% |           0      0.00%      0.00% |           0      0.00%      0.00% |           0      0.00%      0.00% |           0      0.00%      0.00% |           1     33.33%     33.33% |           0      0.00%     33.33% |           1     33.33%     66.67% |           0      0.00%     66.67% |           1     33.33%    100.00% |           0      0.00%    100.00% |           0      0.00%    100.00% (Unspecified)
board.cache_hierarchy.ruby_system.L1Cache_Controller.IM.Data::total            3                       (Unspecified)
board.cache_hierarchy.ruby_system.L1Cache_Controller.IM.Data_all_Acks |         396      1.18%      1.18% |        2010      6.00%      7.18% |        2070      6.18%     13.35% |        2074      6.19%     19.54% |        2074      6.19%     25.73% |        2075      6.19%     31.92% |        2074      6.19%     38.11% |        2074      6.19%     44.29% |        2074      6.19%     50.48% |        2074      6.19%     56.67% |        2073      6.18%     62.85% |        2075      6.19%     69.04% |        2102      6.27%     75.31% |        2017      6.02%     81.33% |        2105      6.28%     87.61% |        2071      6.18%     93.79% |        2082      6.21%    100.00% (Unspecified)
board.cache_hierarchy.ruby_system.L1Cache_Controller.IM.Data_all_Acks::total        33520                       (Unspecified)
board.cache_hierarchy.ruby_system.L1Cache_Controller.SM.Ack |          38     14.56%     14.56% |          13      4.98%     19.54% |          14      5.36%     24.90% |          13      4.98%     29.89% |          13      4.98%     34.87% |          12      4.60%     39.46% |          14      5.36%     44.83% |          15      5.75%     50.57% |          13      4.98%     55.56% |          18      6.90%     62.45% |          18      6.90%     69.35% |          14      5.36%     74.71% |          21      8.05%     82.76% |          10      3.83%     86.59% |          12      4.60%     91.19% |          14      5.36%     96.55% |           9      3.45%    100.00% (Unspecified)
board.cache_hierarchy.ruby_system.L1Cache_Controller.SM.Ack::total          261                       (Unspecified)
board.cache_hierarchy.ruby_system.L1Cache_Controller.SM.Ack_all |          34     14.85%     14.85% |          13      5.68%     20.52% |          13      5.68%     26.20% |          13      5.68%     31.88% |          13      5.68%     37.55% |          12      5.24%     42.79% |          13      5.68%     48.47% |          14      6.11%     54.59% |          13      5.68%     60.26% |          13      5.68%     65.94% |          14      6.11%     72.05% |          12      5.24%     77.29% |          10      4.37%     81.66% |          10      4.37%     86.03% |          11      4.80%     90.83% |          13      5.68%     96.51% |           8      3.49%    100.00% (Unspecified)
board.cache_hierarchy.ruby_system.L1Cache_Controller.SM.Ack_all::total          229                       (Unspecified)
board.cache_hierarchy.ruby_system.L1Cache_Controller.M_I.WB_Ack |         351    100.00%    100.00% |           0      0.00%    100.00% |           0      0.00%    100.00% |           0      0.00%    100.00% |           0      0.00%    100.00% |           0      0.00%    100.00% |           0      0.00%    100.00% |           0      0.00%    100.00% |           0      0.00%    100.00% |           0      0.00%    100.00% |           0      0.00%    100.00% |           0      0.00%    100.00% |           0      0.00%    100.00% |           0      0.00%    100.00% |           0      0.00%    100.00% |           0      0.00%    100.00% |           0      0.00%    100.00% (Unspecified)
board.cache_hierarchy.ruby_system.L1Cache_Controller.M_I.WB_Ack::total          351                       (Unspecified)
board.cache_hierarchy.ruby_system.L2Cache_Controller.L1_GET_INSTR |         134      4.50%      4.50% |         164      5.50%     10.00% |         220      7.38%     17.38% |         245      8.22%     25.60% |         215      7.21%     32.81% |         180      6.04%     38.85% |         203      6.81%     45.66% |         152      5.10%     50.75% |         200      6.71%     57.46% |         201      6.74%     64.21% |         190      6.37%     70.58% |         192      6.44%     77.02% |         200      6.71%     83.73% |         193      6.47%     90.20% |         167      5.60%     95.81% |         125      4.19%    100.00% (Unspecified)
board.cache_hierarchy.ruby_system.L2Cache_Controller.L1_GET_INSTR::total         2981                       (Unspecified)
board.cache_hierarchy.ruby_system.L2Cache_Controller.L1_GETS |         148      5.33%      5.33% |         209      7.53%     12.86% |         195      7.03%     19.89% |         202      7.28%     27.17% |         183      6.59%     33.77% |         184      6.63%     40.40% |         171      6.16%     46.56% |         140      5.05%     51.60% |         137      4.94%     56.54% |         188      6.77%     63.32% |         195      7.03%     70.34% |         134      4.83%     75.17% |         164      5.91%     81.08% |         156      5.62%     86.70% |         188      6.77%     93.48% |         181      6.52%    100.00% (Unspecified)
board.cache_hierarchy.ruby_system.L2Cache_Controller.L1_GETS::total         2775                       (Unspecified)
board.cache_hierarchy.ruby_system.L2Cache_Controller.L1_GETX |      276179     89.61%     89.61% |       31180     10.12%     99.72% |          52      0.02%     99.74% |          53      0.02%     99.76% |          88      0.03%     99.79% |          96      0.03%     99.82% |          76      0.02%     99.84% |          80      0.03%     99.87% |          80      0.03%     99.89% |          47      0.02%     99.91% |          50      0.02%     99.93% |          32      0.01%     99.94% |          64      0.02%     99.96% |          63      0.02%     99.98% |          42      0.01%     99.99% |          30      0.01%    100.00% (Unspecified)
board.cache_hierarchy.ruby_system.L2Cache_Controller.L1_GETX::total       308212                       (Unspecified)
board.cache_hierarchy.ruby_system.L2Cache_Controller.L1_UPGRADE |           1      0.44%      0.44% |          62     27.43%     27.88% |          29     12.83%     40.71% |          14      6.19%     46.90% |          13      5.75%     52.65% |          33     14.60%     67.26% |           4      1.77%     69.03% |           5      2.21%     71.24% |           2      0.88%     72.12% |           2      0.88%     73.01% |          26     11.50%     84.51% |           0      0.00%     84.51% |          14      6.19%     90.71% |           3      1.33%     92.04% |          17      7.52%     99.56% |           1      0.44%    100.00% (Unspecified)
board.cache_hierarchy.ruby_system.L2Cache_Controller.L1_UPGRADE::total          226                       (Unspecified)
board.cache_hierarchy.ruby_system.L2Cache_Controller.L1_PUTX |           9      2.56%      2.56% |          18      5.13%      7.69% |          15      4.27%     11.97% |          27      7.69%     19.66% |          46     13.11%     32.76% |          31      8.83%     41.60% |          30      8.55%     50.14% |          15      4.27%     54.42% |          15      4.27%     58.69% |          13      3.70%     62.39% |          31      8.83%     71.23% |          12      3.42%     74.64% |          27      7.69%     82.34% |          39     11.11%     93.45% |          15      4.27%     97.72% |           8      2.28%    100.00% (Unspecified)
board.cache_hierarchy.ruby_system.L2Cache_Controller.L1_PUTX::total          351                       (Unspecified)
board.cache_hierarchy.ruby_system.L2Cache_Controller.Mem_Data |          59      5.16%      5.16% |          74      6.47%     11.64% |          78      6.82%     18.46% |          79      6.91%     25.37% |          93      8.14%     33.51% |          94      8.22%     41.73% |          72      6.30%     48.03% |          69      6.04%     54.07% |          70      6.12%     60.19% |          76      6.65%     66.84% |          58      5.07%     71.92% |          43      3.76%     75.68% |          64      5.60%     81.28% |          78      6.82%     88.10% |          67      5.86%     93.96% |          69      6.04%    100.00% (Unspecified)
board.cache_hierarchy.ruby_system.L2Cache_Controller.Mem_Data::total         1143                       (Unspecified)
board.cache_hierarchy.ruby_system.L2Cache_Controller.WB_Data |          22      3.87%      3.87% |          93     16.37%     20.25% |          62     10.92%     31.16% |          35      6.16%     37.32% |          30      5.28%     42.61% |          59     10.39%     52.99% |          19      3.35%     56.34% |          21      3.70%     60.04% |          20      3.52%     63.56% |          40      7.04%     70.60% |          44      7.75%     78.35% |          18      3.17%     81.51% |          27      4.75%     86.27% |          19      3.35%     89.61% |          34      5.99%     95.60% |          25      4.40%    100.00% (Unspecified)
board.cache_hierarchy.ruby_system.L2Cache_Controller.WB_Data::total          568                       (Unspecified)
board.cache_hierarchy.ruby_system.L2Cache_Controller.WB_Data_clean |          12     30.77%     30.77% |           0      0.00%     30.77% |           1      2.56%     33.33% |          13     33.33%     66.67% |           1      2.56%     69.23% |           1      2.56%     71.79% |           1      2.56%     74.36% |           0      0.00%     74.36% |           0      0.00%     74.36% |           1      2.56%     76.92% |           2      5.13%     82.05% |           0      0.00%     82.05% |           1      2.56%     84.62% |           1      2.56%     87.18% |           3      7.69%     94.87% |           2      5.13%    100.00% (Unspecified)
board.cache_hierarchy.ruby_system.L2Cache_Controller.WB_Data_clean::total           39                       (Unspecified)
board.cache_hierarchy.ruby_system.L2Cache_Controller.Unblock |          34      5.60%      5.60% |          93     15.32%     20.92% |          63     10.38%     31.30% |          48      7.91%     39.21% |          31      5.11%     44.32% |          60      9.88%     54.20% |          20      3.29%     57.50% |          21      3.46%     60.96% |          20      3.29%     64.25% |          41      6.75%     71.00% |          46      7.58%     78.58% |          18      2.97%     81.55% |          28      4.61%     86.16% |          20      3.29%     89.46% |          37      6.10%     95.55% |          27      4.45%    100.00% (Unspecified)
board.cache_hierarchy.ruby_system.L2Cache_Controller.Unblock::total          607                       (Unspecified)
board.cache_hierarchy.ruby_system.L2Cache_Controller.Exclusive_Unblock |       24660     69.10%     69.10% |        8298     23.25%     92.35% |         197      0.55%     92.90% |         193      0.54%     93.45% |         237      0.66%     94.11% |         253      0.71%     94.82% |         203      0.57%     95.39% |         202      0.57%     95.95% |         199      0.56%     96.51% |         178      0.50%     97.01% |         196      0.55%     97.56% |         147      0.41%     97.97% |         199      0.56%     98.53% |         188      0.53%     99.06% |         180      0.50%     99.56% |         157      0.44%    100.00% (Unspecified)
board.cache_hierarchy.ruby_system.L2Cache_Controller.Exclusive_Unblock::total        35687                       (Unspecified)
board.cache_hierarchy.ruby_system.L2Cache_Controller.NP.L1_GET_INSTR |          25      6.56%      6.56% |          25      6.56%     13.12% |          27      7.09%     20.21% |          28      7.35%     27.56% |          26      6.82%     34.38% |          26      6.82%     41.21% |          19      4.99%     46.19% |          18      4.72%     50.92% |          20      5.25%     56.17% |          25      6.56%     62.73% |          23      6.04%     68.77% |          21      5.51%     74.28% |          27      7.09%     81.36% |          27      7.09%     88.45% |          21      5.51%     93.96% |          23      6.04%    100.00% (Unspecified)
board.cache_hierarchy.ruby_system.L2Cache_Controller.NP.L1_GET_INSTR::total          381                       (Unspecified)
board.cache_hierarchy.ruby_system.L2Cache_Controller.NP.L1_GETS |           0      0.00%      0.00% |           2      3.17%      3.17% |           0      0.00%      3.17% |           0      0.00%      3.17% |          16     25.40%     28.57% |           1      1.59%     30.16% |           2      3.17%     33.33% |           0      0.00%     33.33% |           0      0.00%     33.33% |          17     26.98%     60.32% |           1      1.59%     61.90% |           2      3.17%     65.08% |           1      1.59%     66.67% |           0      0.00%     66.67% |           4      6.35%     73.02% |          17     26.98%    100.00% (Unspecified)
board.cache_hierarchy.ruby_system.L2Cache_Controller.NP.L1_GETS::total           63                       (Unspecified)
board.cache_hierarchy.ruby_system.L2Cache_Controller.NP.L1_GETX |          34      4.86%      4.86% |          47      6.72%     11.59% |          51      7.30%     18.88% |          51      7.30%     26.18% |          51      7.30%     33.48% |          67      9.59%     43.06% |          51      7.30%     50.36% |          51      7.30%     57.65% |          50      7.15%     64.81% |          34      4.86%     69.67% |          34      4.86%     74.54% |          20      2.86%     77.40% |          36      5.15%     82.55% |          51      7.30%     89.84% |          42      6.01%     95.85% |          29      4.15%    100.00% (Unspecified)
board.cache_hierarchy.ruby_system.L2Cache_Controller.NP.L1_GETX::total          699                       (Unspecified)
board.cache_hierarchy.ruby_system.L2Cache_Controller.SS.L1_GET_INSTR |         109      4.19%      4.19% |         139      5.35%      9.54% |         193      7.42%     16.96% |         217      8.35%     25.31% |         189      7.27%     32.58% |         154      5.92%     38.50% |         184      7.08%     45.58% |         134      5.15%     50.73% |         180      6.92%     57.65% |         176      6.77%     64.42% |         167      6.42%     70.85% |         171      6.58%     77.42% |         173      6.65%     84.08% |         166      6.38%     90.46% |         146      5.62%     96.08% |         102      3.92%    100.00% (Unspecified)
board.cache_hierarchy.ruby_system.L2Cache_Controller.SS.L1_GET_INSTR::total         2600                       (Unspecified)
board.cache_hierarchy.ruby_system.L2Cache_Controller.SS.L1_GETS |           4      1.74%      1.74% |           1      0.43%      2.17% |          16      6.96%      9.13% |          28     12.17%     21.30% |          16      6.96%     28.26% |           0      0.00%     28.26% |          28     12.17%     40.43% |           2      0.87%     41.30% |           0      0.00%     41.30% |          18      7.83%     49.13% |          29     12.61%     61.74% |           1      0.43%     62.17% |          15      6.52%     68.70% |          14      6.09%     74.78% |          30     13.04%     87.83% |          28     12.17%    100.00% (Unspecified)
board.cache_hierarchy.ruby_system.L2Cache_Controller.SS.L1_GETS::total          230                       (Unspecified)
board.cache_hierarchy.ruby_system.L2Cache_Controller.SS.L1_GETX |           0      0.00%      0.00% |           0      0.00%      0.00% |           0      0.00%      0.00% |           0      0.00%      0.00% |           1     33.33%     33.33% |           0      0.00%     33.33% |           0      0.00%     33.33% |           0      0.00%     33.33% |           0      0.00%     33.33% |           0      0.00%     33.33% |           2     66.67%    100.00% |           0      0.00%    100.00% |           0      0.00%    100.00% |           0      0.00%    100.00% |           0      0.00%    100.00% |           0      0.00%    100.00% (Unspecified)
board.cache_hierarchy.ruby_system.L2Cache_Controller.SS.L1_GETX::total            3                       (Unspecified)
board.cache_hierarchy.ruby_system.L2Cache_Controller.SS.L1_UPGRADE |           1      0.44%      0.44% |          62     27.43%     27.88% |          29     12.83%     40.71% |          14      6.19%     46.90% |          13      5.75%     52.65% |          33     14.60%     67.26% |           4      1.77%     69.03% |           5      2.21%     71.24% |           2      0.88%     72.12% |           2      0.88%     73.01% |          26     11.50%     84.51% |           0      0.00%     84.51% |          14      6.19%     90.71% |           3      1.33%     92.04% |          17      7.52%     99.56% |           1      0.44%    100.00% (Unspecified)
board.cache_hierarchy.ruby_system.L2Cache_Controller.SS.L1_UPGRADE::total          226                       (Unspecified)
board.cache_hierarchy.ruby_system.L2Cache_Controller.M.L1_GETS |         110      5.87%      5.87% |         113      6.03%     11.89% |         116      6.19%     18.08% |         126      6.72%     24.80% |         120      6.40%     31.20% |         123      6.56%     37.76% |         121      6.45%     44.21% |         117      6.24%     50.45% |         117      6.24%     56.69% |         112      5.97%     62.67% |         119      6.35%     69.01% |         113      6.03%     75.04% |         120      6.40%     81.44% |         122      6.51%     87.95% |         117      6.24%     94.19% |         109      5.81%    100.00% (Unspecified)
board.cache_hierarchy.ruby_system.L2Cache_Controller.M.L1_GETS::total         1875                       (Unspecified)
board.cache_hierarchy.ruby_system.L2Cache_Controller.M.L1_GETX |           2      4.26%      4.26% |           2      4.26%      8.51% |           1      2.13%     10.64% |           2      4.26%     14.89% |          20     42.55%     57.45% |           1      2.13%     59.57% |           1      2.13%     61.70% |           1      2.13%     63.83% |           2      4.26%     68.09% |           1      2.13%     70.21% |           1      2.13%     72.34% |           0      0.00%     72.34% |          12     25.53%     97.87% |           0      0.00%     97.87% |           0      0.00%     97.87% |           1      2.13%    100.00% (Unspecified)
board.cache_hierarchy.ruby_system.L2Cache_Controller.M.L1_GETX::total           47                       (Unspecified)
board.cache_hierarchy.ruby_system.L2Cache_Controller.MT.L1_GETS |          34      5.60%      5.60% |          93     15.32%     20.92% |          63     10.38%     31.30% |          48      7.91%     39.21% |          31      5.11%     44.32% |          60      9.88%     54.20% |          20      3.29%     57.50% |          21      3.46%     60.96% |          20      3.29%     64.25% |          41      6.75%     71.00% |          46      7.58%     78.58% |          18      2.97%     81.55% |          28      4.61%     86.16% |          20      3.29%     89.46% |          37      6.10%     95.55% |          27      4.45%    100.00% (Unspecified)
board.cache_hierarchy.ruby_system.L2Cache_Controller.MT.L1_GETS::total          607                       (Unspecified)
board.cache_hierarchy.ruby_system.L2Cache_Controller.MT.L1_GETX |       24513     74.79%     74.79% |        8072     24.63%     99.42% |           0      0.00%     99.42% |           0      0.00%     99.42% |          16      0.05%     99.47% |          28      0.09%     99.56% |          24      0.07%     99.63% |          28      0.09%     99.72% |          28      0.09%     99.80% |          12      0.04%     99.84% |          13      0.04%     99.88% |          12      0.04%     99.91% |          16      0.05%     99.96% |          12      0.04%    100.00% |           0      0.00%    100.00% |           0      0.00%    100.00% (Unspecified)
board.cache_hierarchy.ruby_system.L2Cache_Controller.MT.L1_GETX::total        32774                       (Unspecified)
board.cache_hierarchy.ruby_system.L2Cache_Controller.MT.L1_PUTX |           9      2.56%      2.56% |          18      5.13%      7.69% |          15      4.27%     11.97% |          27      7.69%     19.66% |          46     13.11%     32.76% |          31      8.83%     41.60% |          30      8.55%     50.14% |          15      4.27%     54.42% |          15      4.27%     58.69% |          13      3.70%     62.39% |          31      8.83%     71.23% |          12      3.42%     74.64% |          27      7.69%     82.34% |          39     11.11%     93.45% |          15      4.27%     97.72% |           8      2.28%    100.00% (Unspecified)
board.cache_hierarchy.ruby_system.L2Cache_Controller.MT.L1_PUTX::total          351                       (Unspecified)
board.cache_hierarchy.ruby_system.L2Cache_Controller.ISS.Mem_Data |           0      0.00%      0.00% |           2      3.17%      3.17% |           0      0.00%      3.17% |           0      0.00%      3.17% |          16     25.40%     28.57% |           1      1.59%     30.16% |           2      3.17%     33.33% |           0      0.00%     33.33% |           0      0.00%     33.33% |          17     26.98%     60.32% |           1      1.59%     61.90% |           2      3.17%     65.08% |           1      1.59%     66.67% |           0      0.00%     66.67% |           4      6.35%     73.02% |          17     26.98%    100.00% (Unspecified)
board.cache_hierarchy.ruby_system.L2Cache_Controller.ISS.Mem_Data::total           63                       (Unspecified)
board.cache_hierarchy.ruby_system.L2Cache_Controller.IS.Mem_Data |          25      6.56%      6.56% |          25      6.56%     13.12% |          27      7.09%     20.21% |          28      7.35%     27.56% |          26      6.82%     34.38% |          26      6.82%     41.21% |          19      4.99%     46.19% |          18      4.72%     50.92% |          20      5.25%     56.17% |          25      6.56%     62.73% |          23      6.04%     68.77% |          21      5.51%     74.28% |          27      7.09%     81.36% |          27      7.09%     88.45% |          21      5.51%     93.96% |          23      6.04%    100.00% (Unspecified)
board.cache_hierarchy.ruby_system.L2Cache_Controller.IS.Mem_Data::total          381                       (Unspecified)
board.cache_hierarchy.ruby_system.L2Cache_Controller.IM.Mem_Data |          34      4.86%      4.86% |          47      6.72%     11.59% |          51      7.30%     18.88% |          51      7.30%     26.18% |          51      7.30%     33.48% |          67      9.59%     43.06% |          51      7.30%     50.36% |          51      7.30%     57.65% |          50      7.15%     64.81% |          34      4.86%     69.67% |          34      4.86%     74.54% |          20      2.86%     77.40% |          36      5.15%     82.55% |          51      7.30%     89.84% |          42      6.01%     95.85% |          29      4.15%    100.00% (Unspecified)
board.cache_hierarchy.ruby_system.L2Cache_Controller.IM.Mem_Data::total          699                       (Unspecified)
board.cache_hierarchy.ruby_system.L2Cache_Controller.SS_MB.Exclusive_Unblock |           1      0.44%      0.44% |          62     27.07%     27.51% |          29     12.66%     40.17% |          14      6.11%     46.29% |          14      6.11%     52.40% |          33     14.41%     66.81% |           4      1.75%     68.56% |           5      2.18%     70.74% |           2      0.87%     71.62% |           2      0.87%     72.49% |          28     12.23%     84.72% |           0      0.00%     84.72% |          14      6.11%     90.83% |           3      1.31%     92.14% |          17      7.42%     99.56% |           1      0.44%    100.00% (Unspecified)
board.cache_hierarchy.ruby_system.L2Cache_Controller.SS_MB.Exclusive_Unblock::total          229                       (Unspecified)
board.cache_hierarchy.ruby_system.L2Cache_Controller.MT_MB.L1_GETX |      251630     91.61%     91.61% |       23059      8.39%    100.00% |           0      0.00%    100.00% |           0      0.00%    100.00% |           0      0.00%    100.00% |           0      0.00%    100.00% |           0      0.00%    100.00% |           0      0.00%    100.00% |           0      0.00%    100.00% |           0      0.00%    100.00% |           0      0.00%    100.00% |           0      0.00%    100.00% |           0      0.00%    100.00% |           0      0.00%    100.00% |           0      0.00%    100.00% |           0      0.00%    100.00% (Unspecified)
board.cache_hierarchy.ruby_system.L2Cache_Controller.MT_MB.L1_GETX::total       274689                       (Unspecified)
board.cache_hierarchy.ruby_system.L2Cache_Controller.MT_MB.Exclusive_Unblock |       24659     69.54%     69.54% |        8236     23.23%     92.77% |         168      0.47%     93.25% |         179      0.50%     93.75% |         223      0.63%     94.38% |         220      0.62%     95.00% |         199      0.56%     95.56% |         197      0.56%     96.12% |         197      0.56%     96.67% |         176      0.50%     97.17% |         168      0.47%     97.64% |         147      0.41%     98.06% |         185      0.52%     98.58% |         185      0.52%     99.10% |         163      0.46%     99.56% |         156      0.44%    100.00% (Unspecified)
board.cache_hierarchy.ruby_system.L2Cache_Controller.MT_MB.Exclusive_Unblock::total        35458                       (Unspecified)
board.cache_hierarchy.ruby_system.L2Cache_Controller.MT_IIB.WB_Data |          21      3.94%      3.94% |          69     12.95%     16.89% |          61     11.44%     28.33% |          35      6.57%     34.90% |          29      5.44%     40.34% |          59     11.07%     51.41% |          18      3.38%     54.78% |          20      3.75%     58.54% |          20      3.75%     62.29% |          40      7.50%     69.79% |          39      7.32%     77.11% |          18      3.38%     80.49% |          27      5.07%     85.55% |          19      3.56%     89.12% |          34      6.38%     95.50% |          24      4.50%    100.00% (Unspecified)
board.cache_hierarchy.ruby_system.L2Cache_Controller.MT_IIB.WB_Data::total          533                       (Unspecified)
board.cache_hierarchy.ruby_system.L2Cache_Controller.MT_IIB.WB_Data_clean |          12     44.44%     44.44% |           0      0.00%     44.44% |           1      3.70%     48.15% |           2      7.41%     55.56% |           1      3.70%     59.26% |           1      3.70%     62.96% |           1      3.70%     66.67% |           0      0.00%     66.67% |           0      0.00%     66.67% |           1      3.70%     70.37% |           2      7.41%     77.78% |           0      0.00%     77.78% |           1      3.70%     81.48% |           1      3.70%     85.19% |           2      7.41%     92.59% |           2      7.41%    100.00% (Unspecified)
board.cache_hierarchy.ruby_system.L2Cache_Controller.MT_IIB.WB_Data_clean::total           27                       (Unspecified)
board.cache_hierarchy.ruby_system.L2Cache_Controller.MT_IIB.Unblock |           1      2.13%      2.13% |          24     51.06%     53.19% |           1      2.13%     55.32% |          11     23.40%     78.72% |           1      2.13%     80.85% |           0      0.00%     80.85% |           1      2.13%     82.98% |           1      2.13%     85.11% |           0      0.00%     85.11% |           0      0.00%     85.11% |           5     10.64%     95.74% |           0      0.00%     95.74% |           0      0.00%     95.74% |           0      0.00%     95.74% |           1      2.13%     97.87% |           1      2.13%    100.00% (Unspecified)
board.cache_hierarchy.ruby_system.L2Cache_Controller.MT_IIB.Unblock::total           47                       (Unspecified)
board.cache_hierarchy.ruby_system.L2Cache_Controller.MT_IB.WB_Data |           1      2.86%      2.86% |          24     68.57%     71.43% |           1      2.86%     74.29% |           0      0.00%     74.29% |           1      2.86%     77.14% |           0      0.00%     77.14% |           1      2.86%     80.00% |           1      2.86%     82.86% |           0      0.00%     82.86% |           0      0.00%     82.86% |           5     14.29%     97.14% |           0      0.00%     97.14% |           0      0.00%     97.14% |           0      0.00%     97.14% |           0      0.00%     97.14% |           1      2.86%    100.00% (Unspecified)
board.cache_hierarchy.ruby_system.L2Cache_Controller.MT_IB.WB_Data::total           35                       (Unspecified)
board.cache_hierarchy.ruby_system.L2Cache_Controller.MT_IB.WB_Data_clean |           0      0.00%      0.00% |           0      0.00%      0.00% |           0      0.00%      0.00% |          11     91.67%     91.67% |           0      0.00%     91.67% |           0      0.00%     91.67% |           0      0.00%     91.67% |           0      0.00%     91.67% |           0      0.00%     91.67% |           0      0.00%     91.67% |           0      0.00%     91.67% |           0      0.00%     91.67% |           0      0.00%     91.67% |           0      0.00%     91.67% |           1      8.33%    100.00% |           0      0.00%    100.00% (Unspecified)
board.cache_hierarchy.ruby_system.L2Cache_Controller.MT_IB.WB_Data_clean::total           12                       (Unspecified)
board.cache_hierarchy.ruby_system.L2Cache_Controller.MT_SB.Unblock |          33      5.89%      5.89% |          69     12.32%     18.21% |          62     11.07%     29.29% |          37      6.61%     35.89% |          30      5.36%     41.25% |          60     10.71%     51.96% |          19      3.39%     55.36% |          20      3.57%     58.93% |          20      3.57%     62.50% |          41      7.32%     69.82% |          41      7.32%     77.14% |          18      3.21%     80.36% |          28      5.00%     85.36% |          20      3.57%     88.93% |          36      6.43%     95.36% |          26      4.64%    100.00% (Unspecified)
board.cache_hierarchy.ruby_system.L2Cache_Controller.MT_SB.Unblock::total          560                       (Unspecified)
board.cache_hierarchy.ruby_system.RequestType.LD.latency_hist_seqr::bucket_size           32                       (Unspecified)
board.cache_hierarchy.ruby_system.RequestType.LD.latency_hist_seqr::max_bucket          319                       (Unspecified)
board.cache_hierarchy.ruby_system.RequestType.LD.latency_hist_seqr::samples       350636                       (Unspecified)
board.cache_hierarchy.ruby_system.RequestType.LD.latency_hist_seqr::mean     1.463723                       (Unspecified)
board.cache_hierarchy.ruby_system.RequestType.LD.latency_hist_seqr::gmean     1.032289                       (Unspecified)
board.cache_hierarchy.ruby_system.RequestType.LD.latency_hist_seqr::stdev     5.714639                       (Unspecified)
board.cache_hierarchy.ruby_system.RequestType.LD.latency_hist_seqr |      348027     99.26%     99.26% |        2352      0.67%     99.93% |         194      0.06%     99.98% |           0      0.00%     99.98% |           2      0.00%     99.98% |           2      0.00%     99.98% |          41      0.01%     99.99% |          15      0.00%    100.00% |           3      0.00%    100.00% |           0      0.00%    100.00% (Unspecified)
board.cache_hierarchy.ruby_system.RequestType.LD.latency_hist_seqr::total       350636                       (Unspecified)
board.cache_hierarchy.ruby_system.RequestType.LD.hit_latency_hist_seqr::bucket_size            1                       (Unspecified)
board.cache_hierarchy.ruby_system.RequestType.LD.hit_latency_hist_seqr::max_bucket            9                       (Unspecified)
board.cache_hierarchy.ruby_system.RequestType.LD.hit_latency_hist_seqr::samples       347861                       (Unspecified)
board.cache_hierarchy.ruby_system.RequestType.LD.hit_latency_hist_seqr::mean     1.000011                       (Unspecified)
board.cache_hierarchy.ruby_system.RequestType.LD.hit_latency_hist_seqr::gmean     1.000008                       (Unspecified)
board.cache_hierarchy.ruby_system.RequestType.LD.hit_latency_hist_seqr::stdev     0.003391                       (Unspecified)
board.cache_hierarchy.ruby_system.RequestType.LD.hit_latency_hist_seqr |           0      0.00%      0.00% |      347857    100.00%    100.00% |           4      0.00%    100.00% |           0      0.00%    100.00% |           0      0.00%    100.00% |           0      0.00%    100.00% |           0      0.00%    100.00% |           0      0.00%    100.00% |           0      0.00%    100.00% |           0      0.00%    100.00% (Unspecified)
board.cache_hierarchy.ruby_system.RequestType.LD.hit_latency_hist_seqr::total       347861                       (Unspecified)
board.cache_hierarchy.ruby_system.RequestType.LD.miss_latency_hist_seqr::bucket_size           32                       (Unspecified)
board.cache_hierarchy.ruby_system.RequestType.LD.miss_latency_hist_seqr::max_bucket          319                       (Unspecified)
board.cache_hierarchy.ruby_system.RequestType.LD.miss_latency_hist_seqr::samples         2775                       (Unspecified)
board.cache_hierarchy.ruby_system.RequestType.LD.miss_latency_hist_seqr::mean    59.592432                       (Unspecified)
board.cache_hierarchy.ruby_system.RequestType.LD.miss_latency_hist_seqr::gmean    55.387741                       (Unspecified)
board.cache_hierarchy.ruby_system.RequestType.LD.miss_latency_hist_seqr::stdev    26.846664                       (Unspecified)
board.cache_hierarchy.ruby_system.RequestType.LD.miss_latency_hist_seqr |         166      5.98%      5.98% |        2352     84.76%     90.74% |         194      6.99%     97.73% |           0      0.00%     97.73% |           2      0.07%     97.80% |           2      0.07%     97.87% |          41      1.48%     99.35% |          15      0.54%     99.89% |           3      0.11%    100.00% |           0      0.00%    100.00% (Unspecified)
board.cache_hierarchy.ruby_system.RequestType.LD.miss_latency_hist_seqr::total         2775                       (Unspecified)
board.cache_hierarchy.ruby_system.RequestType.ST.latency_hist_seqr::bucket_size          256                       (Unspecified)
board.cache_hierarchy.ruby_system.RequestType.ST.latency_hist_seqr::max_bucket         2559                       (Unspecified)
board.cache_hierarchy.ruby_system.RequestType.ST.latency_hist_seqr::samples       193197                       (Unspecified)
board.cache_hierarchy.ruby_system.RequestType.ST.latency_hist_seqr::mean     1.844045                       (Unspecified)
board.cache_hierarchy.ruby_system.RequestType.ST.latency_hist_seqr::gmean     1.028311                       (Unspecified)
board.cache_hierarchy.ruby_system.RequestType.ST.latency_hist_seqr::stdev    13.927345                       (Unspecified)
board.cache_hierarchy.ruby_system.RequestType.ST.latency_hist_seqr |      193176     99.99%     99.99% |          14      0.01%    100.00% |           0      0.00%    100.00% |           1      0.00%    100.00% |           5      0.00%    100.00% |           1      0.00%    100.00% |           0      0.00%    100.00% |           0      0.00%    100.00% |           0      0.00%    100.00% |           0      0.00%    100.00% (Unspecified)
board.cache_hierarchy.ruby_system.RequestType.ST.latency_hist_seqr::total       193197                       (Unspecified)
board.cache_hierarchy.ruby_system.RequestType.ST.hit_latency_hist_seqr::bucket_size           32                       (Unspecified)
board.cache_hierarchy.ruby_system.RequestType.ST.hit_latency_hist_seqr::max_bucket          319                       (Unspecified)
board.cache_hierarchy.ruby_system.RequestType.ST.hit_latency_hist_seqr::samples       192197                       (Unspecified)
board.cache_hierarchy.ruby_system.RequestType.ST.hit_latency_hist_seqr::mean     1.006608                       (Unspecified)
board.cache_hierarchy.ruby_system.RequestType.ST.hit_latency_hist_seqr::gmean     1.002280                       (Unspecified)
board.cache_hierarchy.ruby_system.RequestType.ST.hit_latency_hist_seqr::stdev     0.786449                       (Unspecified)
board.cache_hierarchy.ruby_system.RequestType.ST.hit_latency_hist_seqr |      192193    100.00%    100.00% |           0      0.00%    100.00% |           0      0.00%    100.00% |           1      0.00%    100.00% |           0      0.00%    100.00% |           2      0.00%    100.00% |           1      0.00%    100.00% |           0      0.00%    100.00% |           0      0.00%    100.00% |           0      0.00%    100.00% (Unspecified)
board.cache_hierarchy.ruby_system.RequestType.ST.hit_latency_hist_seqr::total       192197                       (Unspecified)
[...]
board.processor.cores9.core.executeStats0.numInsts       219297                       # Number of executed instructions (Count)
board.processor.cores9.core.executeStats0.numNop            0                       # Number of nop insts executed (Count)
board.processor.cores9.core.executeStats0.numBranches        12964                       # Number of branches executed (Count)
board.processor.cores9.core.executeStats0.numLoadInsts        56117                       # Number of load instructions executed (Count)
board.processor.cores9.core.executeStats0.numStoreInsts        16942                       # Number of stores executed (Count)
board.processor.cores9.core.executeStats0.instRate     0.113867                       # Inst execution rate ((Count/Cycle))
board.processor.cores9.core.executeStats0.numCCRegReads        33128                       # Number of times the CC registers were read (Count)
board.processor.cores9.core.executeStats0.numCCRegWrites        50542                       # Number of times the CC registers were written (Count)
board.processor.cores9.core.executeStats0.numFpRegReads           20                       # Number of times the floating registers were read (Count)
board.processor.cores9.core.executeStats0.numFpRegWrites           10                       # Number of times the floating registers were written (Count)
board.processor.cores9.core.executeStats0.numIntRegReads       271138                       # Number of times the integer registers were read (Count)
board.processor.cores9.core.executeStats0.numIntRegWrites       176414                       # Number of times the integer registers were written (Count)
board.processor.cores9.core.executeStats0.numMemRefs        73059                       # Number of memory refs (Count)
board.processor.cores9.core.executeStats0.numMiscRegReads       101041                       # Number of times the Misc registers were read (Count)
board.processor.cores9.core.executeStats0.numMiscRegWrites            1                       # Number of times the Misc registers were written (Count)
board.processor.cores9.core.executeStats0.numVecAluAccesses            0                       # Number of vector alu accesses (Count)
board.processor.cores9.core.executeStats0.numDiscardedOps            0                       # Number of ops (including micro ops) which were discarded before commit (Count)
board.processor.cores9.core.fetch.predictedBranches        18990                       # Number of branches that fetch has predicted taken (Count)
board.processor.cores9.core.fetch.cycles      1891077                       # Number of cycles fetch has run and was not squashing or blocked (Cycle)
board.processor.cores9.core.fetch.squashCycles         4654                       # Number of cycles fetch has spent squashing (Cycle)
board.processor.cores9.core.fetch.miscStallCycles           61                       # Number of cycles fetch has spent waiting on interrupts, or bad addresses, or out of MSHRs (Cycle)
board.processor.cores9.core.fetch.pendingTrapStallCycles          375                       # Number of stall cycles due to pending traps (Cycle)
board.processor.cores9.core.fetch.cacheLines        25408                       # Number of cache lines fetched (Count)
board.processor.cores9.core.fetch.icacheSquashes           79                       # Number of outstanding Icache misses that were squashed (Count)
board.processor.cores9.core.fetch.nisnDist::samples      1923277                       # Number of instructions fetched each cycle (Total) (Count)
board.processor.cores9.core.fetch.nisnDist::mean     0.210879                       # Number of instructions fetched each cycle (Total) (Count)
board.processor.cores9.core.fetch.nisnDist::stdev     1.231901                       # Number of instructions fetched each cycle (Total) (Count)
board.processor.cores9.core.fetch.nisnDist::underflows            0      0.00%      0.00% # Number of instructions fetched each cycle (Total) (Count)
board.processor.cores9.core.fetch.nisnDist::0      1864251     96.93%     96.93% # Number of instructions fetched each cycle (Total) (Count)
board.processor.cores9.core.fetch.nisnDist::1          200      0.01%     96.94% # Number of instructions fetched each cycle (Total) (Count)
board.processor.cores9.core.fetch.nisnDist::2         6165      0.32%     97.26% # Number of instructions fetched each cycle (Total) (Count)
board.processor.cores9.core.fetch.nisnDist::3           92      0.00%     97.27% # Number of instructions fetched each cycle (Total) (Count)
board.processor.cores9.core.fetch.nisnDist::4         2128      0.11%     97.38% # Number of instructions fetched each cycle (Total) (Count)
board.processor.cores9.core.fetch.nisnDist::5          162      0.01%     97.39% # Number of instructions fetched each cycle (Total) (Count)
board.processor.cores9.core.fetch.nisnDist::6         2171      0.11%     97.50% # Number of instructions fetched each cycle (Total) (Count)
board.processor.cores9.core.fetch.nisnDist::7        14440      0.75%     98.25% # Number of instructions fetched each cycle (Total) (Count)
board.processor.cores9.core.fetch.nisnDist::8        33668      1.75%    100.00% # Number of instructions fetched each cycle (Total) (Count)
board.processor.cores9.core.fetch.nisnDist::overflows            0      0.00%    100.00% # Number of instructions fetched each cycle (Total) (Count)
board.processor.cores9.core.fetch.nisnDist::min_value            0                       # Number of instructions fetched each cycle (Total) (Count)
board.processor.cores9.core.fetch.nisnDist::max_value            8                       # Number of instructions fetched each cycle (Total) (Count)
board.processor.cores9.core.fetch.nisnDist::total      1923277                       # Number of instructions fetched each cycle (Total) (Count)
board.processor.cores9.core.fetchStats0.numInsts       240348                       # Number of instructions fetched (thread level) (Count)
board.processor.cores9.core.fetchStats0.numOps            0                       # Number of ops (including micro ops) fetched (thread level) (Count)
board.processor.cores9.core.fetchStats0.fetchRate     0.124797                       # Number of inst fetches per cycle ((Count/Cycle))
board.processor.cores9.core.fetchStats0.numBranches        25739                       # Number of branches fetched (Count)
board.processor.cores9.core.fetchStats0.branchRate     0.013365                       # Number of branch fetches per cycle (Ratio)
board.processor.cores9.core.fetchStats0.icacheStallCycles        29437                       # ICache total stall cycles (Cycle)
board.processor.cores9.core.fetchStats0.numFetchSuspends            0                       # Number of times Execute suspended instruction fetching (Count)
board.processor.cores9.core.iew.idleCycles            0                       # Number of cycles IEW is idle (Cycle)
board.processor.cores9.core.iew.squashCycles         2216                       # Number of cycles IEW is squashing (Cycle)
board.processor.cores9.core.iew.blockCycles      1814693                       # Number of cycles IEW is blocking (Cycle)
board.processor.cores9.core.iew.unblockCycles         4573                       # Number of cycles IEW is unblocking (Cycle)
board.processor.cores9.core.iew.dispatchedInsts       306826                       # Number of instructions dispatched to IQ (Count)
board.processor.cores9.core.iew.dispSquashedInsts            2                       # Number of squashed instructions skipped by dispatch (Count)
board.processor.cores9.core.iew.dispLoadInsts        76911                       # Number of dispatched load instructions (Count)
board.processor.cores9.core.iew.dispStoreInsts        25230                       # Number of dispatched store instructions (Count)
board.processor.cores9.core.iew.dispNonSpecInsts         4123                       # Number of dispatched non-speculative instructions (Count)
board.processor.cores9.core.iew.iqFullEvents          418                       # Number of times the IQ has become full, causing a stall (Count)
board.processor.cores9.core.iew.lsqFullEvents           55                       # Number of times the LSQ has become full, causing a stall (Count)
board.processor.cores9.core.iew.memOrderViolationEvents         2055                       # Number of memory order violations (Count)
board.processor.cores9.core.iew.predictedTakenIncorrect            7                       # Number of branches that were predicted taken incorrectly (Count)
board.processor.cores9.core.iew.predictedNotTakenIncorrect          159                       # Number of branches that were predicted not taken incorrectly (Count)
board.processor.cores9.core.iew.branchMispredicts          166                       # Number of branch mispredicts detected at execute (Count)
board.processor.cores9.core.iew.instsToCommit       219265                       # Cumulative count of insts sent to commit (Count)
board.processor.cores9.core.iew.writebackCount       219098                       # Cumulative count of insts written-back (Count)
board.processor.cores9.core.iew.producerInst       161358                       # Number of instructions producing a value (Count)
board.processor.cores9.core.iew.consumerInst       255657                       # Number of instructions consuming a value (Count)
board.processor.cores9.core.iew.wbRate       0.113763                       # Insts written-back per cycle ((Count/Cycle))
board.processor.cores9.core.iew.wbFanout     0.631150                       # Average fanout of values written-back ((Count/Count))
board.processor.cores9.core.interrupts.clk_domain.clock         5328                       # Clock period in ticks (Tick)
board.processor.cores9.core.lsq0.forwLoads         4288                       # Number of loads that had data forwarded from stores (Count)
board.processor.cores9.core.lsq0.squashedLoads        43572                       # Number of loads squashed (Count)
board.processor.cores9.core.lsq0.ignoredResponses            1                       # Number of memory responses ignored because the instruction is squashed (Count)
board.processor.cores9.core.lsq0.memOrderViolation         2055                       # Number of memory ordering violations (Count)
board.processor.cores9.core.lsq0.squashedStores        12501                       # Number of stores squashed (Count)
board.processor.cores9.core.lsq0.rescheduledLoads            0                       # Number of loads that were rescheduled (Count)
board.processor.cores9.core.lsq0.blockedByCache            0                       # Number of times an access to memory failed due to the cache being blocked (Count)
board.processor.cores9.core.lsq0.loadToUse::samples        33339                       # Distribution of cycle latency between the first time a load is issued and its completion (Unspecified)
board.processor.cores9.core.lsq0.loadToUse::mean    55.901437                       # Distribution of cycle latency between the first time a load is issued and its completion (Unspecified)
board.processor.cores9.core.lsq0.loadToUse::stdev   207.202484                       # Distribution of cycle latency between the first time a load is issued and its completion (Unspecified)
board.processor.cores9.core.lsq0.loadToUse::0-9        31122     93.35%     93.35% # Distribution of cycle latency between the first time a load is issued and its completion (Unspecified)
board.processor.cores9.core.lsq0.loadToUse::10-19            8      0.02%     93.37% # Distribution of cycle latency between the first time a load is issued and its completion (Unspecified)
board.processor.cores9.core.lsq0.loadToUse::20-29            2      0.01%     93.38% # Distribution of cycle latency between the first time a load is issued and its completion (Unspecified)
board.processor.cores9.core.lsq0.loadToUse::30-39            1      0.00%     93.38% # Distribution of cycle latency between the first time a load is issued and its completion (Unspecified)
board.processor.cores9.core.lsq0.loadToUse::50-59          128      0.38%     93.77% # Distribution of cycle latency between the first time a load is issued and its completion (Unspecified)
board.processor.cores9.core.lsq0.loadToUse::60-69           15      0.04%     93.81% # Distribution of cycle latency between the first time a load is issued and its completion (Unspecified)
board.processor.cores9.core.lsq0.loadToUse::70-79            1      0.00%     93.82% # Distribution of cycle latency between the first time a load is issued and its completion (Unspecified)
board.processor.cores9.core.lsq0.loadToUse::80-89            9      0.03%     93.84% # Distribution of cycle latency between the first time a load is issued and its completion (Unspecified)
board.processor.cores9.core.lsq0.loadToUse::90-99            2      0.01%     93.85% # Distribution of cycle latency between the first time a load is issued and its completion (Unspecified)
board.processor.cores9.core.lsq0.loadToUse::150-159            1      0.00%     93.85% # Distribution of cycle latency between the first time a load is issued and its completion (Unspecified)
board.processor.cores9.core.lsq0.loadToUse::200-209            1      0.00%     93.85% # Distribution of cycle latency between the first time a load is issued and its completion (Unspecified)
board.processor.cores9.core.lsq0.loadToUse::260-269           11      0.03%     93.89% # Distribution of cycle latency between the first time a load is issued and its completion (Unspecified)
board.processor.cores9.core.lsq0.loadToUse::280-289            1      0.00%     93.89% # Distribution of cycle latency between the first time a load is issued and its completion (Unspecified)
board.processor.cores9.core.lsq0.loadToUse::290-299            1      0.00%     93.89% # Distribution of cycle latency between the first time a load is issued and its completion (Unspecified)
board.processor.cores9.core.lsq0.loadToUse::overflows         2036      6.11%    100.00% # Distribution of cycle latency between the first time a load is issued and its completion (Unspecified)
board.processor.cores9.core.lsq0.loadToUse::min_value            2                       # Distribution of cycle latency between the first time a load is issued and its completion (Unspecified)
board.processor.cores9.core.lsq0.loadToUse::max_value          897                       # Distribution of cycle latency between the first time a load is issued and its completion (Unspecified)
board.processor.cores9.core.lsq0.loadToUse::total        33339                       # Distribution of cycle latency between the first time a load is issued and its completion (Unspecified)
board.processor.cores9.core.mmu.dtb.rdAccesses        56117                       # TLB accesses on read requests (Count)
board.processor.cores9.core.mmu.dtb.wrAccesses        16942                       # TLB accesses on write requests (Count)
board.processor.cores9.core.mmu.dtb.rdMisses           76                       # TLB misses on read requests (Count)
board.processor.cores9.core.mmu.dtb.wrMisses           15                       # TLB misses on write requests (Count)
board.processor.cores9.core.mmu.dtb.walker.power_state.pwrStateResidencyTicks::UNDEFINED    948044673                       # Cumulative time (in ticks) in various power states (Tick)
board.processor.cores9.core.mmu.itb.rdAccesses            0                       # TLB accesses on read requests (Count)
board.processor.cores9.core.mmu.itb.wrAccesses        25472                       # TLB accesses on write requests (Count)
board.processor.cores9.core.mmu.itb.rdMisses            0                       # TLB misses on read requests (Count)
board.processor.cores9.core.mmu.itb.wrMisses          117                       # TLB misses on write requests (Count)
board.processor.cores9.core.mmu.itb.walker.power_state.pwrStateResidencyTicks::UNDEFINED    948044673                       # Cumulative time (in ticks) in various power states (Tick)
board.processor.cores9.core.power_state.pwrStateResidencyTicks::ON    948044673                       # Cumulative time (in ticks) in various power states (Tick)
board.processor.cores9.core.rename.squashCycles         2216                       # Number of cycles rename is squashing (Cycle)
board.processor.cores9.core.rename.idleCycles        19308                       # Number of cycles rename is idle (Cycle)
board.processor.cores9.core.rename.blockCycles      1836161                       # Number of cycles rename is blocking (Cycle)
board.processor.cores9.core.rename.serializeStallCycles            0                       # count of cycles rename stalled for serializing inst (Cycle)
board.processor.cores9.core.rename.runCycles        39919                       # Number of cycles rename is running (Cycle)
board.processor.cores9.core.rename.unblockCycles        25673                       # Number of cycles rename is unblocking (Cycle)
board.processor.cores9.core.rename.renamedInsts       323580                       # Number of instructions processed by rename (Count)
board.processor.cores9.core.rename.ROBFullEvents            7                       # Number of times rename has blocked due to ROB full (Count)
board.processor.cores9.core.rename.IQFullEvents        22512                       # Number of times rename has blocked due to IQ full (Count)
board.processor.cores9.core.rename.LQFullEvents           94                       # Number of times rename has blocked due to LQ full (Count)
board.processor.cores9.core.rename.SQFullEvents          626                       # Number of times rename has blocked due to SQ full (Count)
board.processor.cores9.core.rename.renamedOperands       492734                       # Number of destination operands rename has renamed (Count)
board.processor.cores9.core.rename.lookups       990716                       # Number of register rename lookups that rename has made (Count)
board.processor.cores9.core.rename.intLookups       431870                       # Number of integer rename lookups (Count)
board.processor.cores9.core.rename.fpLookups           20                       # Number of floating rename lookups (Count)
board.processor.cores9.core.rename.committedMaps       196362                       # Number of HB maps that are committed (Count)
board.processor.cores9.core.rename.undoneMaps       296372                       # Number of HB maps that are undone due to squashing (Count)
board.processor.cores9.core.rename.serializing            0                       # count of serializing insts renamed (Count)
board.processor.cores9.core.rename.tempSerializing            0                       # count of temporary serializing insts renamed (Count)
board.processor.cores9.core.rename.skidInsts        59342                       # count of insts added to the skid buffer (Count)
board.processor.cores9.core.rob.reads         2202494                       # The number of ROB reads (Count)
board.processor.cores9.core.rob.writes         636295                       # The number of ROB writes (Count)
board.processor.cores9.core.thread_0.numInsts        77732                       # Number of Instructions committed (Count)
board.processor.cores9.core.thread_0.numOps       133179                       # Number of Ops committed (Count)
board.processor.cores9.core.thread_0.numMemRefs            0                       # Number of Memory References (Count)
board.workload.inst.arm                             0                       # number of arm instructions executed (Count)
board.workload.inst.quiesce                         0                       # number of quiesce instructions executed (Count)

---------- End Simulation Statistics   ----------
