gem5 Simulator System.  https://www.gem5.org
gem5 is copyrighted software; use the --copyright option for details.

gem5 version 23.0.1.0
gem5 compiled Nov 30 2023 11:45:00
gem5 started Dec 19 2023 22:56:38
gem5 executing on quzi, pid 5752
command line: gem5.opt -re --outdir=exp_61/Large_BlockIJ ./run.py

Global frequency set at 1000000000000 ticks per second
Beginning matrix multiply ...
