gem5 Simulator System.  https://www.gem5.org
gem5 is copyrighted software; use the --copyright option for details.

gem5 version 23.0.1.0
gem5 compiled Nov 30 2023 11:45:00
gem5 started Dec 19 2023 21:38:11
gem5 executing on quzi, pid 4649
command line: gem5.opt -re --outdir=exp_61/Little_BlockKJ ./run.py

Global frequency set at 1000000000000 ticks per second
Beginning matrix multiply ...
