
---------- Begin Simulation Statistics ----------
simSeconds                                   0.000349                       # Number of seconds simulated (Second)
simTicks                                    349338312                       # Number of ticks simulated (Tick)
finalTick                                   574466625                       # Number of ticks from beginning of simulation (restored from checkpoints and never reset) (Tick)
simFreq                                  1000000000000                       # The number of ticks per simulated second ((Tick/Second))
hostSeconds                                     36.72                       # Real time elapsed on the host (Second)
hostTickRate                                  9514489                       # The number of ticks simulated per host second (ticks/s) ((Tick/Second))
hostMemory                                    1757564                       # Number of bytes of host memory used (Byte)
simInsts                                      1567955                       # Number of instructions simulated (Count)
simOps                                        2498994                       # Number of ops (including micro ops) simulated (Count)
hostInstRate                                    42704                       # Simulator instruction rate (inst/s) ((Count/Second))
hostOpRate                                      68062                       # Simulator op (including micro ops) rate (op/s) ((Count/Second))
board.cache_hierarchy.ruby_system.delayHistogram::bucket_size          256                       # delay histogram for all message (Unspecified)
board.cache_hierarchy.ruby_system.delayHistogram::max_bucket         2559                       # delay histogram for all message (Unspecified)
board.cache_hierarchy.ruby_system.delayHistogram::samples       219986                       # delay histogram for all message (Unspecified)
board.cache_hierarchy.ruby_system.delayHistogram::mean   284.854968                       # delay histogram for all message (Unspecified)
board.cache_hierarchy.ruby_system.delayHistogram::stdev   724.989574                       # delay histogram for all message (Unspecified)
board.cache_hierarchy.ruby_system.delayHistogram |      189072     85.95%     85.95% |         894      0.41%     86.35% |         590      0.27%     86.62% |         756      0.34%     86.97% |         716      0.33%     87.29% |         835      0.38%     87.67% |        1145      0.52%     88.19% |        1171      0.53%     88.72% |       23770     10.81%     99.53% |        1037      0.47%    100.00% # delay histogram for all message (Unspecified)
board.cache_hierarchy.ruby_system.delayHistogram::total       219986                       # delay histogram for all message (Unspecified)
board.cache_hierarchy.ruby_system.m_outstandReqHistSeqr::bucket_size            2                       (Unspecified)
board.cache_hierarchy.ruby_system.m_outstandReqHistSeqr::max_bucket           19                       (Unspecified)
board.cache_hierarchy.ruby_system.m_outstandReqHistSeqr::samples      1069746                       (Unspecified)
board.cache_hierarchy.ruby_system.m_outstandReqHistSeqr::mean     1.198053                       (Unspecified)
board.cache_hierarchy.ruby_system.m_outstandReqHistSeqr::gmean     1.141146                       (Unspecified)
board.cache_hierarchy.ruby_system.m_outstandReqHistSeqr::stdev     0.467748                       (Unspecified)
board.cache_hierarchy.ruby_system.m_outstandReqHistSeqr |      873437     81.65%     81.65% |      193178     18.06%     99.71% |        2549      0.24%     99.95% |         273      0.03%     99.97% |         114      0.01%     99.98% |          88      0.01%     99.99% |          69      0.01%    100.00% |          34      0.00%    100.00% |           4      0.00%    100.00% |           0      0.00%    100.00% (Unspecified)
board.cache_hierarchy.ruby_system.m_outstandReqHistSeqr::total      1069746                       (Unspecified)
board.cache_hierarchy.ruby_system.m_latencyHistSeqr::bucket_size          128                       (Unspecified)
board.cache_hierarchy.ruby_system.m_latencyHistSeqr::max_bucket         1279                       (Unspecified)
board.cache_hierarchy.ruby_system.m_latencyHistSeqr::samples      1070056                       (Unspecified)
board.cache_hierarchy.ruby_system.m_latencyHistSeqr::mean    12.313183                       (Unspecified)
board.cache_hierarchy.ruby_system.m_latencyHistSeqr::gmean     1.332009                       (Unspecified)
board.cache_hierarchy.ruby_system.m_latencyHistSeqr::stdev    60.824626                       (Unspecified)
board.cache_hierarchy.ruby_system.m_latencyHistSeqr |     1037902     97.00%     97.00% |        3341      0.31%     97.31% |       27364      2.56%     99.86% |        1437      0.13%    100.00% |           0      0.00%    100.00% |           1      0.00%    100.00% |           0      0.00%    100.00% |           0      0.00%    100.00% |           4      0.00%    100.00% |           7      0.00%    100.00% (Unspecified)
board.cache_hierarchy.ruby_system.m_latencyHistSeqr::total      1070056                       (Unspecified)
board.cache_hierarchy.ruby_system.m_hitLatencyHistSeqr::bucket_size           16                       (Unspecified)
board.cache_hierarchy.ruby_system.m_hitLatencyHistSeqr::max_bucket          159                       (Unspecified)
board.cache_hierarchy.ruby_system.m_hitLatencyHistSeqr::samples       999486                       (Unspecified)
board.cache_hierarchy.ruby_system.m_hitLatencyHistSeqr::mean     1.000966                       (Unspecified)
board.cache_hierarchy.ruby_system.m_hitLatencyHistSeqr::gmean     1.000247                       (Unspecified)
board.cache_hierarchy.ruby_system.m_hitLatencyHistSeqr::stdev     0.228092                       (Unspecified)
board.cache_hierarchy.ruby_system.m_hitLatencyHistSeqr |      999477    100.00%    100.00% |           0      0.00%    100.00% |           0      0.00%    100.00% |           2      0.00%    100.00% |           5      0.00%    100.00% |           1      0.00%    100.00% |           0      0.00%    100.00% |           1      0.00%    100.00% |           0      0.00%    100.00% |           0      0.00%    100.00% (Unspecified)
board.cache_hierarchy.ruby_system.m_hitLatencyHistSeqr::total       999486                       (Unspecified)
board.cache_hierarchy.ruby_system.m_missLatencyHistSeqr::bucket_size          128                       (Unspecified)
board.cache_hierarchy.ruby_system.m_missLatencyHistSeqr::max_bucket         1279                       (Unspecified)
board.cache_hierarchy.ruby_system.m_missLatencyHistSeqr::samples        70570                       (Unspecified)
board.cache_hierarchy.ruby_system.m_missLatencyHistSeqr::mean   172.528596                       (Unspecified)
board.cache_hierarchy.ruby_system.m_missLatencyHistSeqr::gmean    76.981793                       (Unspecified)
board.cache_hierarchy.ruby_system.m_missLatencyHistSeqr::stdev   169.162573                       (Unspecified)
board.cache_hierarchy.ruby_system.m_missLatencyHistSeqr |       38416     54.44%     54.44% |        3341      4.73%     59.17% |       27364     38.78%     97.95% |        1437      2.04%     99.98% |           0      0.00%     99.98% |           1      0.00%     99.98% |           0      0.00%     99.98% |           0      0.00%     99.98% |           4      0.01%     99.99% |           7      0.01%    100.00% (Unspecified)
board.cache_hierarchy.ruby_system.m_missLatencyHistSeqr::total        70570                       (Unspecified)
board.cache_hierarchy.ruby_system.delayVCHist.vnet_0::bucket_size          256                       # delay histogram for vnet_0 (Unspecified)
board.cache_hierarchy.ruby_system.delayVCHist.vnet_0::max_bucket         2559                       # delay histogram for vnet_0 (Unspecified)
board.cache_hierarchy.ruby_system.delayVCHist.vnet_0::samples       109512                       # delay histogram for vnet_0 (Unspecified)
board.cache_hierarchy.ruby_system.delayVCHist.vnet_0::mean   572.008721                       # delay histogram for vnet_0 (Unspecified)
board.cache_hierarchy.ruby_system.delayVCHist.vnet_0::stdev   944.267915                       # delay histogram for vnet_0 (Unspecified)
board.cache_hierarchy.ruby_system.delayVCHist.vnet_0 |       78598     71.77%     71.77% |         894      0.82%     72.59% |         590      0.54%     73.13% |         756      0.69%     73.82% |         716      0.65%     74.47% |         835      0.76%     75.23% |        1145      1.05%     76.28% |        1171      1.07%     77.35% |       23770     21.71%     99.05% |        1037      0.95%    100.00% # delay histogram for vnet_0 (Unspecified)
board.cache_hierarchy.ruby_system.delayVCHist.vnet_0::total       109512                       # delay histogram for vnet_0 (Unspecified)
board.cache_hierarchy.ruby_system.delayVCHist.vnet_1::bucket_size            8                       # delay histogram for vnet_1 (Unspecified)
board.cache_hierarchy.ruby_system.delayVCHist.vnet_1::max_bucket           79                       # delay histogram for vnet_1 (Unspecified)
board.cache_hierarchy.ruby_system.delayVCHist.vnet_1::samples        74931                       # delay histogram for vnet_1 (Unspecified)
board.cache_hierarchy.ruby_system.delayVCHist.vnet_1::mean     0.297367                       # delay histogram for vnet_1 (Unspecified)
board.cache_hierarchy.ruby_system.delayVCHist.vnet_1::stdev     1.644641                       # delay histogram for vnet_1 (Unspecified)
board.cache_hierarchy.ruby_system.delayVCHist.vnet_1 |       72619     96.91%     96.91% |        2211      2.95%     99.87% |          67      0.09%     99.95% |          23      0.03%     99.99% |          10      0.01%    100.00% |           1      0.00%    100.00% |           0      0.00%    100.00% |           0      0.00%    100.00% |           0      0.00%    100.00% |           0      0.00%    100.00% # delay histogram for vnet_1 (Unspecified)
board.cache_hierarchy.ruby_system.delayVCHist.vnet_1::total        74931                       # delay histogram for vnet_1 (Unspecified)
board.cache_hierarchy.ruby_system.delayVCHist.vnet_2::bucket_size            1                       # delay histogram for vnet_2 (Unspecified)
board.cache_hierarchy.ruby_system.delayVCHist.vnet_2::max_bucket            9                       # delay histogram for vnet_2 (Unspecified)
board.cache_hierarchy.ruby_system.delayVCHist.vnet_2::samples        35543                       # delay histogram for vnet_2 (Unspecified)
board.cache_hierarchy.ruby_system.delayVCHist.vnet_2::mean     0.000113                       # delay histogram for vnet_2 (Unspecified)
board.cache_hierarchy.ruby_system.delayVCHist.vnet_2::stdev     0.015002                       # delay histogram for vnet_2 (Unspecified)
board.cache_hierarchy.ruby_system.delayVCHist.vnet_2 |       35541     99.99%     99.99% |           0      0.00%     99.99% |           2      0.01%    100.00% |           0      0.00%    100.00% |           0      0.00%    100.00% |           0      0.00%    100.00% |           0      0.00%    100.00% |           0      0.00%    100.00% |           0      0.00%    100.00% |           0      0.00%    100.00% # delay histogram for vnet_2 (Unspecified)
board.cache_hierarchy.ruby_system.delayVCHist.vnet_2::total        35543                       # delay histogram for vnet_2 (Unspecified)
board.cache_hierarchy.ruby_system.Directory_Controller.Fetch         1142      0.00%      0.00% (Unspecified)
board.cache_hierarchy.ruby_system.Directory_Controller.Memory_Data         1142      0.00%      0.00% (Unspecified)
board.cache_hierarchy.ruby_system.Directory_Controller.I.Fetch         1142      0.00%      0.00% (Unspecified)
board.cache_hierarchy.ruby_system.Directory_Controller.IM.Memory_Data         1142      0.00%      0.00% (Unspecified)
board.cache_hierarchy.ruby_system.L1Cache_Controller.Load |       13418      5.35%      5.35% |       14879      5.93%     11.27% |       14840      5.91%     17.18% |       14840      5.91%     23.10% |       14840      5.91%     29.01% |       14860      5.92%     34.93% |       14844      5.91%     40.84% |       14864      5.92%     46.76% |       14842      5.91%     52.68% |       14863      5.92%     58.60% |       14845      5.91%     64.51% |       14844      5.91%     70.42% |       14847      5.91%     76.34% |       14844      5.91%     82.25% |       14851      5.92%     88.17% |       14852      5.92%     94.09% |       14847      5.91%    100.00% (Unspecified)
board.cache_hierarchy.ruby_system.L1Cache_Controller.Load::total       251020                       (Unspecified)
board.cache_hierarchy.ruby_system.L1Cache_Controller.Ifetch |       20792      3.72%      3.72% |       33560      6.01%      9.74% |       33550      6.01%     15.74% |       33557      6.01%     21.75% |       33560      6.01%     27.77% |       33584      6.02%     33.78% |       33576      6.01%     39.79% |       33600      6.02%     45.81% |       33564      6.01%     51.82% |       33588      6.02%     57.84% |       33579      6.01%     63.86% |       33582      6.01%     69.87% |       33700      6.04%     75.91% |       33569      6.01%     81.92% |       33688      6.03%     87.95% |       33575      6.01%     93.97% |       33687      6.03%    100.00% (Unspecified)
board.cache_hierarchy.ruby_system.L1Cache_Controller.Ifetch::total       558311                       (Unspecified)
board.cache_hierarchy.ruby_system.L1Cache_Controller.Store |       22865      8.77%      8.77% |       15085      5.79%     14.56% |       14793      5.67%     20.23% |       14793      5.67%     25.90% |       14793      5.67%     31.58% |       14793      5.67%     37.25% |       14793      5.67%     42.92% |       14793      5.67%     48.60% |       14793      5.67%     54.27% |       14793      5.67%     59.95% |       14793      5.67%     65.62% |       14793      5.67%     71.29% |       15085      5.79%     77.08% |       14793      5.67%     82.75% |       15088      5.79%     88.54% |       14793      5.67%     94.21% |       15085      5.79%    100.00% (Unspecified)
board.cache_hierarchy.ruby_system.L1Cache_Controller.Store::total       260724                       (Unspecified)
board.cache_hierarchy.ruby_system.L1Cache_Controller.Inv |          87     34.25%     34.25% |          10      3.94%     38.19% |           9      3.54%     41.73% |          10      3.94%     45.67% |          10      3.94%     49.61% |          11      4.33%     53.94% |           9      3.54%     57.48% |          10      3.94%     61.42% |          10      3.94%     65.35% |          12      4.72%     70.08% |          12      4.72%     74.80% |          13      5.12%     79.92% |          12      4.72%     84.65% |          12      4.72%     89.37% |          11      4.33%     93.70% |           9      3.54%     97.24% |           7      2.76%    100.00% (Unspecified)
board.cache_hierarchy.ruby_system.L1Cache_Controller.Inv::total          254                       (Unspecified)
board.cache_hierarchy.ruby_system.L1Cache_Controller.L1_Replacement |         859      3.21%      3.21% |        1638      6.12%      9.33% |        1611      6.02%     15.34% |        1610      6.01%     21.36% |        1612      6.02%     27.38% |        1615      6.03%     33.41% |        1612      6.02%     39.43% |        1615      6.03%     45.47% |        1611      6.02%     51.48% |        1615      6.03%     57.52% |        1613      6.02%     63.54% |        1614      6.03%     69.57% |        1641      6.13%     75.70% |        1612      6.02%     81.72% |        1641      6.13%     87.85% |        1612      6.02%     93.87% |        1641      6.13%    100.00% (Unspecified)
board.cache_hierarchy.ruby_system.L1Cache_Controller.L1_Replacement::total        26772                       (Unspecified)
board.cache_hierarchy.ruby_system.L1Cache_Controller.Fwd_GETX |          41      0.12%      0.12% |        1998      6.07%      6.20% |        2061      6.27%     12.46% |        2061      6.27%     18.73% |        2061      6.27%     25.00% |        2061      6.27%     31.26% |        2061      6.27%     37.53% |        2061      6.27%     43.79% |        2061      6.27%     50.06% |        2061      6.27%     56.32% |        2061      6.27%     62.59% |        2061      6.27%     68.85% |        2049      6.23%     75.08% |        2061      6.27%     81.35% |        2050      6.23%     87.58% |        2050      6.23%     93.81% |        2035      6.19%    100.00% (Unspecified)
board.cache_hierarchy.ruby_system.L1Cache_Controller.Fwd_GETX::total        32894                       (Unspecified)
board.cache_hierarchy.ruby_system.L1Cache_Controller.Fwd_GETS |         419     17.49%     17.49% |        1813     75.70%     93.19% |          11      0.46%     93.65% |          11      0.46%     94.11% |          12      0.50%     94.61% |          11      0.46%     95.07% |          12      0.50%     95.57% |          11      0.46%     96.03% |          11      0.46%     96.49% |          11      0.46%     96.95% |          11      0.46%     97.41% |          13      0.54%     97.95% |          14      0.58%     98.54% |          12      0.50%     99.04% |           9      0.38%     99.42% |           7      0.29%     99.71% |           7      0.29%    100.00% (Unspecified)
board.cache_hierarchy.ruby_system.L1Cache_Controller.Fwd_GETS::total         2395                       (Unspecified)
board.cache_hierarchy.ruby_system.L1Cache_Controller.Data |           0      0.00%      0.00% |           0      0.00%      0.00% |           0      0.00%      0.00% |           0      0.00%      0.00% |           0      0.00%      0.00% |           0      0.00%      0.00% |           0      0.00%      0.00% |           0      0.00%      0.00% |           0      0.00%      0.00% |           0      0.00%      0.00% |           0      0.00%      0.00% |           0      0.00%      0.00% |           1     33.33%     33.33% |           0      0.00%     33.33% |           1     33.33%     66.67% |           0      0.00%     66.67% |           1     33.33%    100.00% (Unspecified)
board.cache_hierarchy.ruby_system.L1Cache_Controller.Data::total            3                       (Unspecified)
board.cache_hierarchy.ruby_system.L1Cache_Controller.Data_Exclusive |          78      3.71%      3.71% |        1813     86.17%     89.88% |          15      0.71%     90.59% |          14      0.67%     91.25% |          15      0.71%     91.97% |          14      0.67%     92.63% |          14      0.67%     93.30% |          13      0.62%     93.92% |          14      0.67%     94.58% |          14      0.67%     95.25% |          13      0.62%     95.87% |          14      0.67%     96.53% |          14      0.67%     97.20% |          14      0.67%     97.86% |          15      0.71%     98.57% |          15      0.71%     99.29% |          15      0.71%    100.00% (Unspecified)
board.cache_hierarchy.ruby_system.L1Cache_Controller.Data_Exclusive::total         2104                       (Unspecified)
board.cache_hierarchy.ruby_system.L1Cache_Controller.DataS_fromL1 |          54      2.25%      2.25% |         273     11.40%     13.65% |        1817     75.87%     89.52% |          18      0.75%     90.27% |          19      0.79%     91.06% |          20      0.84%     91.90% |          17      0.71%     92.61% |          17      0.71%     93.32% |          18      0.75%     94.07% |          17      0.71%     94.78% |          18      0.75%     95.53% |          18      0.75%     96.28% |          17      0.71%     96.99% |          18      0.75%     97.75% |          17      0.71%     98.46% |          20      0.84%     99.29% |          17      0.71%    100.00% (Unspecified)
board.cache_hierarchy.ruby_system.L1Cache_Controller.DataS_fromL1::total         2395                       (Unspecified)
board.cache_hierarchy.ruby_system.L1Cache_Controller.Data_all_Acks |         767      1.16%      1.16% |        2229      3.39%      4.55% |        2495      3.79%      8.34% |        4297      6.53%     14.86% |        4295      6.52%     21.39% |        4302      6.53%     27.92% |        4299      6.53%     34.45% |        4308      6.54%     40.99% |        4297      6.53%     47.52% |        4306      6.54%     54.06% |        4300      6.53%     60.59% |        4301      6.53%     67.12% |        4357      6.62%     73.73% |        4298      6.53%     80.26% |        4358      6.62%     86.88% |        4298      6.53%     93.41% |        4342      6.59%    100.00% (Unspecified)
board.cache_hierarchy.ruby_system.L1Cache_Controller.Data_all_Acks::total        65849                       (Unspecified)
board.cache_hierarchy.ruby_system.L1Cache_Controller.Ack |          30     11.95%     11.95% |           9      3.59%     15.54% |          13      5.18%     20.72% |          13      5.18%     25.90% |          13      5.18%     31.08% |          12      4.78%     35.86% |          14      5.58%     41.43% |          13      5.18%     46.61% |          14      5.58%     52.19% |          13      5.18%     57.37% |          14      5.58%     62.95% |          15      5.98%     68.92% |          26     10.36%     79.28% |          14      5.58%     84.86% |          11      4.38%     89.24% |          14      5.58%     94.82% |          13      5.18%    100.00% (Unspecified)
board.cache_hierarchy.ruby_system.L1Cache_Controller.Ack::total          251                       (Unspecified)
board.cache_hierarchy.ruby_system.L1Cache_Controller.Ack_all |          25     11.26%     11.26% |           9      4.05%     15.32% |          13      5.86%     21.17% |          13      5.86%     27.03% |          13      5.86%     32.88% |          12      5.41%     38.29% |          13      5.86%     44.14% |          12      5.41%     49.55% |          13      5.86%     55.41% |          12      5.41%     60.81% |          13      5.86%     66.67% |          14      6.31%     72.97% |          14      6.31%     79.28% |          13      5.86%     85.14% |          10      4.50%     89.64% |          13      5.86%     95.50% |          10      4.50%    100.00% (Unspecified)
board.cache_hierarchy.ruby_system.L1Cache_Controller.Ack_all::total          222                       (Unspecified)
board.cache_hierarchy.ruby_system.L1Cache_Controller.WB_Ack |         347     60.88%     60.88% |          13      2.28%     63.16% |          14      2.46%     65.61% |          14      2.46%     68.07% |          14      2.46%     70.53% |          14      2.46%     72.98% |          14      2.46%     75.44% |          14      2.46%     77.89% |          14      2.46%     80.35% |          14      2.46%     82.81% |          14      2.46%     85.26% |          14      2.46%     87.72% |          14      2.46%     90.18% |          14      2.46%     92.63% |          14      2.46%     95.09% |          14      2.46%     97.54% |          14      2.46%    100.00% (Unspecified)
board.cache_hierarchy.ruby_system.L1Cache_Controller.WB_Ack::total          570                       (Unspecified)
board.cache_hierarchy.ruby_system.L1Cache_Controller.NP.Load |         126      0.37%      0.37% |        2088      6.21%      6.58% |        2096      6.23%     12.81% |        2095      6.23%     19.03% |        2097      6.23%     25.27% |        2098      6.23%     31.50% |        2096      6.23%     37.73% |        2097      6.23%     43.96% |        2096      6.23%     50.19% |        2098      6.23%     56.42% |        2097      6.23%     62.66% |        2098      6.23%     68.89% |        2091      6.21%     75.11% |        2096      6.23%     81.33% |        2092      6.22%     87.55% |        2097      6.23%     93.78% |        2092      6.22%    100.00% (Unspecified)
board.cache_hierarchy.ruby_system.L1Cache_Controller.NP.Load::total        33650                       (Unspecified)
board.cache_hierarchy.ruby_system.L1Cache_Controller.NP.Ifetch |         338     11.30%     11.30% |         181      6.05%     17.35% |         157      5.25%     22.59% |         160      5.35%     27.94% |         158      5.28%     33.22% |         163      5.45%     38.67% |         159      5.31%     43.98% |         165      5.51%     49.50% |         159      5.31%     54.81% |         164      5.48%     60.29% |         159      5.31%     65.61% |         159      5.31%     70.92% |         184      6.15%     77.07% |         159      5.31%     82.39% |         185      6.18%     88.57% |         159      5.31%     93.88% |         183      6.12%    100.00% (Unspecified)
board.cache_hierarchy.ruby_system.L1Cache_Controller.NP.Ifetch::total         2992                       (Unspecified)
board.cache_hierarchy.ruby_system.L1Cache_Controller.NP.Store |         395     40.60%     40.60% |          62      6.37%     46.97% |          27      2.77%     49.74% |          27      2.77%     52.52% |          27      2.77%     55.29% |          28      2.88%     58.17% |          28      2.88%     61.05% |          29      2.98%     64.03% |          27      2.77%     66.80% |          28      2.88%     69.68% |          28      2.88%     72.56% |          28      2.88%     75.44% |          62      6.37%     81.81% |          28      2.88%     84.69% |          61      6.27%     90.96% |          27      2.77%     93.73% |          61      6.27%    100.00% (Unspecified)
board.cache_hierarchy.ruby_system.L1Cache_Controller.NP.Store::total          973                       (Unspecified)
board.cache_hierarchy.ruby_system.L1Cache_Controller.NP.Inv |          10    100.00%    100.00% |           0      0.00%    100.00% |           0      0.00%    100.00% |           0      0.00%    100.00% |           0      0.00%    100.00% |           0      0.00%    100.00% |           0      0.00%    100.00% |           0      0.00%    100.00% |           0      0.00%    100.00% |           0      0.00%    100.00% |           0      0.00%    100.00% |           0      0.00%    100.00% |           0      0.00%    100.00% |           0      0.00%    100.00% |           0      0.00%    100.00% |           0      0.00%    100.00% |           0      0.00%    100.00% (Unspecified)
board.cache_hierarchy.ruby_system.L1Cache_Controller.NP.Inv::total           10                       (Unspecified)
board.cache_hierarchy.ruby_system.L1Cache_Controller.I.Load |          36     66.67%     66.67% |           0      0.00%     66.67% |           0      0.00%     66.67% |           0      0.00%     66.67% |           0      0.00%     66.67% |           0      0.00%     66.67% |           0      0.00%     66.67% |           0      0.00%     66.67% |           0      0.00%     66.67% |           0      0.00%     66.67% |           0      0.00%     66.67% |           1      1.85%     68.52% |           4      7.41%     75.93% |           0      0.00%     75.93% |           5      9.26%     85.19% |           3      5.56%     90.74% |           5      9.26%    100.00% (Unspecified)
board.cache_hierarchy.ruby_system.L1Cache_Controller.I.Load::total           54                       (Unspecified)
board.cache_hierarchy.ruby_system.L1Cache_Controller.I.Store |           3      0.01%      0.01% |        1984      6.07%      6.08% |        2047      6.26%     12.34% |        2047      6.26%     18.61% |        2047      6.26%     24.87% |        2047      6.26%     31.13% |        2047      6.26%     37.40% |        2047      6.26%     43.66% |        2047      6.26%     49.93% |        2047      6.26%     56.19% |        2047      6.26%     62.45% |        2047      6.26%     68.72% |        2048      6.27%     74.98% |        2047      6.26%     81.25% |        2048      6.27%     87.51% |        2047      6.26%     93.78% |        2034      6.22%    100.00% (Unspecified)
board.cache_hierarchy.ruby_system.L1Cache_Controller.I.Store::total        32681                       (Unspecified)
board.cache_hierarchy.ruby_system.L1Cache_Controller.I.L1_Replacement |          57     95.00%     95.00% |           1      1.67%     96.67% |           0      0.00%     96.67% |           0      0.00%     96.67% |           0      0.00%     96.67% |           1      1.67%     98.33% |           0      0.00%     98.33% |           0      0.00%     98.33% |           0      0.00%     98.33% |           1      1.67%    100.00% |           0      0.00%    100.00% |           0      0.00%    100.00% |           0      0.00%    100.00% |           0      0.00%    100.00% |           0      0.00%    100.00% |           0      0.00%    100.00% |           0      0.00%    100.00% (Unspecified)
board.cache_hierarchy.ruby_system.L1Cache_Controller.I.L1_Replacement::total           60                       (Unspecified)
board.cache_hierarchy.ruby_system.L1Cache_Controller.S.Load |         260     18.16%     18.16% |          63      4.40%     22.56% |          71      4.96%     27.51% |          69      4.82%     32.33% |          67      4.68%     37.01% |          72      5.03%     42.04% |          66      4.61%     46.65% |          74      5.17%     51.82% |          73      5.10%     56.91% |          74      5.17%     62.08% |          69      4.82%     66.90% |          73      5.10%     72.00% |          82      5.73%     77.72% |          77      5.38%     83.10% |          86      6.01%     89.11% |          73      5.10%     94.20% |          83      5.80%    100.00% (Unspecified)
board.cache_hierarchy.ruby_system.L1Cache_Controller.S.Load::total         1432                       (Unspecified)
board.cache_hierarchy.ruby_system.L1Cache_Controller.S.Ifetch |       20454      3.68%      3.68% |       33379      6.01%      9.69% |       33393      6.01%     15.71% |       33397      6.01%     21.72% |       33402      6.01%     27.74% |       33421      6.02%     33.75% |       33417      6.02%     39.77% |       33435      6.02%     45.79% |       33405      6.02%     51.81% |       33424      6.02%     57.83% |       33420      6.02%     63.85% |       33423      6.02%     69.86% |       33516      6.04%     75.90% |       33410      6.02%     81.92% |       33503      6.03%     87.95% |       33416      6.02%     93.97% |       33504      6.03%    100.00% (Unspecified)
board.cache_hierarchy.ruby_system.L1Cache_Controller.S.Ifetch::total       555319                       (Unspecified)
board.cache_hierarchy.ruby_system.L1Cache_Controller.S.Store |          25     11.42%     11.42% |           9      4.11%     15.53% |          13      5.94%     21.46% |          13      5.94%     27.40% |          13      5.94%     33.33% |          12      5.48%     38.81% |          13      5.94%     44.75% |          12      5.48%     50.23% |          13      5.94%     56.16% |          12      5.48%     61.64% |          13      5.94%     67.58% |          14      6.39%     73.97% |          13      5.94%     79.91% |          13      5.94%     85.84% |           9      4.11%     89.95% |          13      5.94%     95.89% |           9      4.11%    100.00% (Unspecified)
board.cache_hierarchy.ruby_system.L1Cache_Controller.S.Store::total          219                       (Unspecified)
board.cache_hierarchy.ruby_system.L1Cache_Controller.S.Inv |          77     31.56%     31.56% |          10      4.10%     35.66% |           9      3.69%     39.34% |          10      4.10%     43.44% |          10      4.10%     47.54% |          11      4.51%     52.05% |           9      3.69%     55.74% |          10      4.10%     59.84% |          10      4.10%     63.93% |          12      4.92%     68.85% |          12      4.92%     73.77% |          13      5.33%     79.10% |          12      4.92%     84.02% |          12      4.92%     88.93% |          11      4.51%     93.44% |           9      3.69%     97.13% |           7      2.87%    100.00% (Unspecified)
board.cache_hierarchy.ruby_system.L1Cache_Controller.S.Inv::total          244                       (Unspecified)
board.cache_hierarchy.ruby_system.L1Cache_Controller.S.L1_Replacement |         455      1.74%      1.74% |        1624      6.21%      7.95% |        1597      6.11%     14.06% |        1596      6.11%     20.17% |        1598      6.11%     26.28% |        1600      6.12%     32.40% |        1598      6.11%     38.51% |        1601      6.12%     44.64% |        1597      6.11%     50.75% |        1600      6.12%     56.87% |        1599      6.12%     62.98% |        1600      6.12%     69.10% |        1627      6.22%     75.33% |        1598      6.11%     81.44% |        1627      6.22%     87.66% |        1598      6.11%     93.78% |        1627      6.22%    100.00% (Unspecified)
board.cache_hierarchy.ruby_system.L1Cache_Controller.S.L1_Replacement::total        26142                       (Unspecified)
board.cache_hierarchy.ruby_system.L1Cache_Controller.E.Load |        1611     91.79%     91.79% |          12      0.68%     92.48% |           8      0.46%     92.93% |           8      0.46%     93.39% |           8      0.46%     93.85% |           8      0.46%     94.30% |          12      0.68%     94.99% |           8      0.46%     95.44% |           8      0.46%     95.90% |           8      0.46%     96.35% |           8      0.46%     96.81% |           8      0.46%     97.26% |          10      0.57%     97.83% |           8      0.46%     98.29% |          11      0.63%     98.92% |           8      0.46%     99.37% |          11      0.63%    100.00% (Unspecified)
board.cache_hierarchy.ruby_system.L1Cache_Controller.E.Load::total         1755                       (Unspecified)
board.cache_hierarchy.ruby_system.L1Cache_Controller.E.Store |          25     15.06%     15.06% |           8      4.82%     19.88% |           9      5.42%     25.30% |           9      5.42%     30.72% |           9      5.42%     36.14% |           9      5.42%     41.57% |           8      4.82%     46.39% |           8      4.82%     51.20% |           9      5.42%     56.63% |           9      5.42%     62.05% |           8      4.82%     66.87% |           8      4.82%     71.69% |           8      4.82%     76.51% |           9      5.42%     81.93% |          10      6.02%     87.95% |          10      6.02%     93.98% |          10      6.02%    100.00% (Unspecified)
board.cache_hierarchy.ruby_system.L1Cache_Controller.E.Store::total          166                       (Unspecified)
board.cache_hierarchy.ruby_system.L1Cache_Controller.E.L1_Replacement |           9     36.00%     36.00% |           1      4.00%     40.00% |           1      4.00%     44.00% |           1      4.00%     48.00% |           1      4.00%     52.00% |           1      4.00%     56.00% |           1      4.00%     60.00% |           1      4.00%     64.00% |           1      4.00%     68.00% |           1      4.00%     72.00% |           1      4.00%     76.00% |           1      4.00%     80.00% |           1      4.00%     84.00% |           1      4.00%     88.00% |           1      4.00%     92.00% |           1      4.00%     96.00% |           1      4.00%    100.00% (Unspecified)
board.cache_hierarchy.ruby_system.L1Cache_Controller.E.L1_Replacement::total           25                       (Unspecified)
board.cache_hierarchy.ruby_system.L1Cache_Controller.E.Fwd_GETS |           6      0.33%      0.33% |        1801     98.63%     98.96% |           1      0.05%     99.01% |           1      0.05%     99.07% |           2      0.11%     99.18% |           1      0.05%     99.23% |           2      0.11%     99.34% |           1      0.05%     99.40% |           1      0.05%     99.45% |           1      0.05%     99.51% |           1      0.05%     99.56% |           2      0.11%     99.67% |           2      0.11%     99.78% |           1      0.05%     99.84% |           1      0.05%     99.89% |           1      0.05%     99.95% |           1      0.05%    100.00% (Unspecified)
board.cache_hierarchy.ruby_system.L1Cache_Controller.E.Fwd_GETS::total         1826                       (Unspecified)
board.cache_hierarchy.ruby_system.L1Cache_Controller.M.Load |       11385      5.32%      5.32% |       12716      5.94%     11.26% |       12665      5.91%     17.17% |       12668      5.92%     23.09% |       12668      5.92%     29.00% |       12682      5.92%     34.92% |       12670      5.92%     40.84% |       12685      5.92%     46.77% |       12665      5.91%     52.68% |       12683      5.92%     58.60% |       12671      5.92%     64.52% |       12664      5.91%     70.44% |       12660      5.91%     76.35% |       12663      5.91%     82.26% |       12657      5.91%     88.17% |       12671      5.92%     94.09% |       12656      5.91%    100.00% (Unspecified)
board.cache_hierarchy.ruby_system.L1Cache_Controller.M.Load::total       214129                       (Unspecified)
board.cache_hierarchy.ruby_system.L1Cache_Controller.M.Store |       22417      9.89%      9.89% |       13022      5.74%     15.63% |       12697      5.60%     21.23% |       12697      5.60%     26.84% |       12697      5.60%     32.44% |       12697      5.60%     38.04% |       12697      5.60%     43.64% |       12697      5.60%     49.24% |       12697      5.60%     54.84% |       12697      5.60%     60.44% |       12697      5.60%     66.04% |       12696      5.60%     71.64% |       12954      5.71%     77.36% |       12696      5.60%     82.96% |       12960      5.72%     88.68% |       12696      5.60%     94.28% |       12971      5.72%    100.00% (Unspecified)
board.cache_hierarchy.ruby_system.L1Cache_Controller.M.Store::total       226685                       (Unspecified)
board.cache_hierarchy.ruby_system.L1Cache_Controller.M.L1_Replacement |         338     62.02%     62.02% |          12      2.20%     64.22% |          13      2.39%     66.61% |          13      2.39%     68.99% |          13      2.39%     71.38% |          13      2.39%     73.76% |          13      2.39%     76.15% |          13      2.39%     78.53% |          13      2.39%     80.92% |          13      2.39%     83.30% |          13      2.39%     85.69% |          13      2.39%     88.07% |          13      2.39%     90.46% |          13      2.39%     92.84% |          13      2.39%     95.23% |          13      2.39%     97.61% |          13      2.39%    100.00% (Unspecified)
board.cache_hierarchy.ruby_system.L1Cache_Controller.M.L1_Replacement::total          545                       (Unspecified)
board.cache_hierarchy.ruby_system.L1Cache_Controller.M.Fwd_GETX |          41      0.12%      0.12% |        1998      6.07%      6.20% |        2061      6.27%     12.46% |        2061      6.27%     18.73% |        2061      6.27%     25.00% |        2061      6.27%     31.26% |        2061      6.27%     37.53% |        2061      6.27%     43.79% |        2061      6.27%     50.06% |        2061      6.27%     56.32% |        2061      6.27%     62.59% |        2061      6.27%     68.85% |        2049      6.23%     75.08% |        2061      6.27%     81.35% |        2050      6.23%     87.58% |        2050      6.23%     93.81% |        2035      6.19%    100.00% (Unspecified)
board.cache_hierarchy.ruby_system.L1Cache_Controller.M.Fwd_GETX::total        32894                       (Unspecified)
board.cache_hierarchy.ruby_system.L1Cache_Controller.M.Fwd_GETS |         413     72.58%     72.58% |          12      2.11%     74.69% |          10      1.76%     76.45% |          10      1.76%     78.21% |          10      1.76%     79.96% |          10      1.76%     81.72% |          10      1.76%     83.48% |          10      1.76%     85.24% |          10      1.76%     86.99% |          10      1.76%     88.75% |          10      1.76%     90.51% |          11      1.93%     92.44% |          12      2.11%     94.55% |          11      1.93%     96.49% |           8      1.41%     97.89% |           6      1.05%     98.95% |           6      1.05%    100.00% (Unspecified)
board.cache_hierarchy.ruby_system.L1Cache_Controller.M.Fwd_GETS::total          569                       (Unspecified)
board.cache_hierarchy.ruby_system.L1Cache_Controller.IS.Data_Exclusive |          78      3.71%      3.71% |        1813     86.17%     89.88% |          15      0.71%     90.59% |          14      0.67%     91.25% |          15      0.71%     91.97% |          14      0.67%     92.63% |          14      0.67%     93.30% |          13      0.62%     93.92% |          14      0.67%     94.58% |          14      0.67%     95.25% |          13      0.62%     95.87% |          14      0.67%     96.53% |          14      0.67%     97.20% |          14      0.67%     97.86% |          15      0.71%     98.57% |          15      0.71%     99.29% |          15      0.71%    100.00% (Unspecified)
board.cache_hierarchy.ruby_system.L1Cache_Controller.IS.Data_Exclusive::total         2104                       (Unspecified)
board.cache_hierarchy.ruby_system.L1Cache_Controller.IS.DataS_fromL1 |          54      2.25%      2.25% |         273     11.40%     13.65% |        1817     75.87%     89.52% |          18      0.75%     90.27% |          19      0.79%     91.06% |          20      0.84%     91.90% |          17      0.71%     92.61% |          17      0.71%     93.32% |          18      0.75%     94.07% |          17      0.71%     94.78% |          18      0.75%     95.53% |          18      0.75%     96.28% |          17      0.71%     96.99% |          18      0.75%     97.75% |          17      0.71%     98.46% |          20      0.84%     99.29% |          17      0.71%    100.00% (Unspecified)
board.cache_hierarchy.ruby_system.L1Cache_Controller.IS.DataS_fromL1::total         2395                       (Unspecified)
board.cache_hierarchy.ruby_system.L1Cache_Controller.IS.Data_all_Acks |         369      1.15%      1.15% |         183      0.57%      1.71% |         421      1.31%      3.02% |        2223      6.90%      9.93% |        2221      6.90%     16.82% |        2227      6.92%     23.74% |        2224      6.91%     30.65% |        2232      6.93%     37.58% |        2223      6.90%     44.48% |        2231      6.93%     51.41% |        2225      6.91%     58.32% |        2226      6.91%     65.24% |        2248      6.98%     72.22% |        2223      6.90%     79.12% |        2250      6.99%     86.11% |        2224      6.91%     93.02% |        2248      6.98%    100.00% (Unspecified)
board.cache_hierarchy.ruby_system.L1Cache_Controller.IS.Data_all_Acks::total        32198                       (Unspecified)
board.cache_hierarchy.ruby_system.L1Cache_Controller.IM.Data |           0      0.00%      0.00% |           0      0.00%      0.00% |           0      0.00%      0.00% |           0      0.00%      0.00% |           0      0.00%      0.00% |           0      0.00%      0.00% |           0      0.00%      0.00% |           0      0.00%      0.00% |           0      0.00%      0.00% |           0      0.00%      0.00% |           0      0.00%      0.00% |           0      0.00%      0.00% |           1     33.33%     33.33% |           0      0.00%     33.33% |           1     33.33%     66.67% |           0      0.00%     66.67% |           1     33.33%    100.00% (Unspecified)
board.cache_hierarchy.ruby_system.L1Cache_Controller.IM.Data::total            3                       (Unspecified)
board.cache_hierarchy.ruby_system.L1Cache_Controller.IM.Data_all_Acks |         398      1.18%      1.18% |        2046      6.08%      7.26% |        2074      6.16%     13.43% |        2074      6.16%     19.59% |        2074      6.16%     25.75% |        2075      6.17%     31.92% |        2075      6.17%     38.09% |        2076      6.17%     44.25% |        2074      6.16%     50.42% |        2075      6.17%     56.58% |        2075      6.17%     62.75% |        2075      6.17%     68.92% |        2109      6.27%     75.18% |        2075      6.17%     81.35% |        2108      6.26%     87.61% |        2074      6.16%     93.78% |        2094      6.22%    100.00% (Unspecified)
board.cache_hierarchy.ruby_system.L1Cache_Controller.IM.Data_all_Acks::total        33651                       (Unspecified)
board.cache_hierarchy.ruby_system.L1Cache_Controller.SM.Ack |          30     11.95%     11.95% |           9      3.59%     15.54% |          13      5.18%     20.72% |          13      5.18%     25.90% |          13      5.18%     31.08% |          12      4.78%     35.86% |          14      5.58%     41.43% |          13      5.18%     46.61% |          14      5.58%     52.19% |          13      5.18%     57.37% |          14      5.58%     62.95% |          15      5.98%     68.92% |          26     10.36%     79.28% |          14      5.58%     84.86% |          11      4.38%     89.24% |          14      5.58%     94.82% |          13      5.18%    100.00% (Unspecified)
board.cache_hierarchy.ruby_system.L1Cache_Controller.SM.Ack::total          251                       (Unspecified)
board.cache_hierarchy.ruby_system.L1Cache_Controller.SM.Ack_all |          25     11.26%     11.26% |           9      4.05%     15.32% |          13      5.86%     21.17% |          13      5.86%     27.03% |          13      5.86%     32.88% |          12      5.41%     38.29% |          13      5.86%     44.14% |          12      5.41%     49.55% |          13      5.86%     55.41% |          12      5.41%     60.81% |          13      5.86%     66.67% |          14      6.31%     72.97% |          14      6.31%     79.28% |          13      5.86%     85.14% |          10      4.50%     89.64% |          13      5.86%     95.50% |          10      4.50%    100.00% (Unspecified)
board.cache_hierarchy.ruby_system.L1Cache_Controller.SM.Ack_all::total          222                       (Unspecified)
board.cache_hierarchy.ruby_system.L1Cache_Controller.M_I.WB_Ack |         347     60.88%     60.88% |          13      2.28%     63.16% |          14      2.46%     65.61% |          14      2.46%     68.07% |          14      2.46%     70.53% |          14      2.46%     72.98% |          14      2.46%     75.44% |          14      2.46%     77.89% |          14      2.46%     80.35% |          14      2.46%     82.81% |          14      2.46%     85.26% |          14      2.46%     87.72% |          14      2.46%     90.18% |          14      2.46%     92.63% |          14      2.46%     95.09% |          14      2.46%     97.54% |          14      2.46%    100.00% (Unspecified)
board.cache_hierarchy.ruby_system.L1Cache_Controller.M_I.WB_Ack::total          570                       (Unspecified)
board.cache_hierarchy.ruby_system.L2Cache_Controller.L1_GET_INSTR |         135      4.51%      4.51% |         163      5.45%      9.96% |         219      7.32%     17.27% |         246      8.22%     25.49% |         216      7.22%     32.71% |         190      6.35%     39.06% |         213      7.12%     46.17% |         168      5.61%     51.79% |         216      7.22%     59.00% |         201      6.72%     65.72% |         188      6.28%     72.00% |         191      6.38%     78.38% |         198      6.62%     85.00% |         187      6.25%     91.25% |         152      5.08%     96.32% |         110      3.68%    100.00% (Unspecified)
board.cache_hierarchy.ruby_system.L2Cache_Controller.L1_GET_INSTR::total         2993                       (Unspecified)
board.cache_hierarchy.ruby_system.L2Cache_Controller.L1_GETS |        2068      6.14%      6.14% |        2156      6.40%     12.53% |        2136      6.34%     18.87% |        2140      6.35%     25.22% |        2119      6.29%     31.50% |        2121      6.29%     37.80% |        2108      6.25%     44.05% |        2079      6.17%     50.22% |        2094      6.21%     56.43% |        2123      6.30%     62.73% |        2115      6.27%     69.01% |        2052      6.09%     75.09% |        2086      6.19%     81.28% |        2095      6.22%     87.50% |        2113      6.27%     93.77% |        2101      6.23%    100.00% (Unspecified)
board.cache_hierarchy.ruby_system.L2Cache_Controller.L1_GETS::total        33706                       (Unspecified)
board.cache_hierarchy.ruby_system.L2Cache_Controller.L1_GETX |      385898     99.76%     99.76% |          51      0.01%     99.78% |          52      0.01%     99.79% |          53      0.01%     99.80% |          89      0.02%     99.83% |         112      0.03%     99.86% |          76      0.02%     99.87% |          80      0.02%     99.90% |          80      0.02%     99.92% |          47      0.01%     99.93% |          51      0.01%     99.94% |          32      0.01%     99.95% |          64      0.02%     99.97% |          63      0.02%     99.98% |          37      0.01%     99.99% |          30      0.01%    100.00% (Unspecified)
board.cache_hierarchy.ruby_system.L2Cache_Controller.L1_GETX::total       386815                       (Unspecified)
board.cache_hierarchy.ruby_system.L2Cache_Controller.L1_UPGRADE |           1      0.45%      0.45% |          55     25.00%     25.45% |          29     13.18%     38.64% |          14      6.36%     45.00% |          14      6.36%     51.36% |          33     15.00%     66.36% |           4      1.82%     68.18% |           5      2.27%     70.45% |           2      0.91%     71.36% |           2      0.91%     72.27% |          26     11.82%     84.09% |           0      0.00%     84.09% |          14      6.36%     90.45% |           3      1.36%     91.82% |          17      7.73%     99.55% |           1      0.45%    100.00% (Unspecified)
board.cache_hierarchy.ruby_system.L2Cache_Controller.L1_UPGRADE::total          220                       (Unspecified)
board.cache_hierarchy.ruby_system.L2Cache_Controller.L1_PUTX |          24      4.21%      4.21% |          49      8.60%     12.81% |          31      5.44%     18.25% |          47      8.25%     26.49% |          62     10.88%     37.37% |          63     11.05%     48.42% |          46      8.07%     56.49% |          47      8.25%     64.74% |          47      8.25%     72.98% |          31      5.44%     78.42% |          31      5.44%     83.86% |          10      1.75%     85.61% |          29      5.09%     90.70% |          30      5.26%     95.96% |          15      2.63%     98.60% |           8      1.40%    100.00% (Unspecified)
board.cache_hierarchy.ruby_system.L2Cache_Controller.L1_PUTX::total          570                       (Unspecified)
board.cache_hierarchy.ruby_system.L2Cache_Controller.Mem_Data |          59      5.17%      5.17% |          74      6.48%     11.65% |          77      6.74%     18.39% |          79      6.92%     25.31% |          93      8.14%     33.45% |          94      8.23%     41.68% |          73      6.39%     48.07% |          69      6.04%     54.12% |          72      6.30%     60.42% |          75      6.57%     66.99% |          60      5.25%     72.24% |          40      3.50%     75.74% |          64      5.60%     81.35% |          77      6.74%     88.09% |          67      5.87%     93.96% |          69      6.04%    100.00% (Unspecified)
board.cache_hierarchy.ruby_system.L2Cache_Controller.Mem_Data::total         1142                       (Unspecified)
board.cache_hierarchy.ruby_system.L2Cache_Controller.WB_Data |          23      4.04%      4.04% |          85     14.94%     18.98% |          62     10.90%     29.88% |          30      5.27%     35.15% |          30      5.27%     40.42% |          59     10.37%     50.79% |          19      3.34%     54.13% |          21      3.69%     57.82% |          19      3.34%     61.16% |          38      6.68%     67.84% |          43      7.56%     75.40% |          20      3.51%     78.91% |          29      5.10%     84.01% |          32      5.62%     89.63% |          34      5.98%     95.61% |          25      4.39%    100.00% (Unspecified)
board.cache_hierarchy.ruby_system.L2Cache_Controller.WB_Data::total          569                       (Unspecified)
board.cache_hierarchy.ruby_system.L2Cache_Controller.WB_Data_clean |         108      5.91%      5.91% |         113      6.19%     12.10% |         114      6.24%     18.35% |         130      7.12%     25.47% |         114      6.24%     31.71% |         118      6.46%     38.17% |         116      6.35%     44.52% |         113      6.19%     50.71% |         113      6.19%     56.90% |         112      6.13%     63.03% |         115      6.30%     69.33% |         108      5.91%     75.25% |         114      6.24%     81.49% |         116      6.35%     87.84% |         115      6.30%     94.14% |         107      5.86%    100.00% (Unspecified)
board.cache_hierarchy.ruby_system.L2Cache_Controller.WB_Data_clean::total         1826                       (Unspecified)
board.cache_hierarchy.ruby_system.L2Cache_Controller.Unblock |         131      5.47%      5.47% |         198      8.27%     13.74% |         176      7.35%     21.09% |         160      6.68%     27.77% |         144      6.01%     33.78% |         177      7.39%     41.17% |         135      5.64%     46.81% |         134      5.59%     52.40% |         132      5.51%     57.91% |         150      6.26%     64.18% |         158      6.60%     70.77% |         128      5.34%     76.12% |         143      5.97%     82.09% |         148      6.18%     88.27% |         149      6.22%     94.49% |         132      5.51%    100.00% (Unspecified)
board.cache_hierarchy.ruby_system.L2Cache_Controller.Unblock::total         2395                       (Unspecified)
board.cache_hierarchy.ruby_system.L2Cache_Controller.Exclusive_Unblock |       32864     91.35%     91.35% |         253      0.70%     92.05% |         213      0.59%     92.64% |         214      0.59%     93.24% |         255      0.71%     93.95% |         285      0.79%     94.74% |         219      0.61%     95.35% |         218      0.61%     95.95% |         216      0.60%     96.55% |         181      0.50%     97.06% |         196      0.54%     97.60% |         143      0.40%     98.00% |         198      0.55%     98.55% |         185      0.51%     99.06% |         180      0.50%     99.56% |         157      0.44%    100.00% (Unspecified)
board.cache_hierarchy.ruby_system.L2Cache_Controller.Exclusive_Unblock::total        35977                       (Unspecified)
board.cache_hierarchy.ruby_system.L2Cache_Controller.NP.L1_GET_INSTR |          25      6.61%      6.61% |          25      6.61%     13.23% |          26      6.88%     20.11% |          28      7.41%     27.51% |          26      6.88%     34.39% |          25      6.61%     41.01% |          20      5.29%     46.30% |          18      4.76%     51.06% |          20      5.29%     56.35% |          24      6.35%     62.70% |          24      6.35%     69.05% |          21      5.56%     74.60% |          27      7.14%     81.75% |          26      6.88%     88.62% |          21      5.56%     94.18% |          22      5.82%    100.00% (Unspecified)
board.cache_hierarchy.ruby_system.L2Cache_Controller.NP.L1_GET_INSTR::total          378                       (Unspecified)
board.cache_hierarchy.ruby_system.L2Cache_Controller.NP.L1_GETS |           0      0.00%      0.00% |           2      2.94%      2.94% |           0      0.00%      2.94% |           0      0.00%      2.94% |          16     23.53%     26.47% |           1      1.47%     27.94% |           2      2.94%     30.88% |           0      0.00%     30.88% |           1      1.47%     32.35% |          17     25.00%     57.35% |           2      2.94%     60.29% |           0      0.00%     60.29% |           1      1.47%     61.76% |           0      0.00%     61.76% |           9     13.24%     75.00% |          17     25.00%    100.00% (Unspecified)
board.cache_hierarchy.ruby_system.L2Cache_Controller.NP.L1_GETS::total           68                       (Unspecified)
board.cache_hierarchy.ruby_system.L2Cache_Controller.NP.L1_GETX |          34      4.89%      4.89% |          47      6.75%     11.64% |          51      7.33%     18.97% |          51      7.33%     26.29% |          51      7.33%     33.62% |          68      9.77%     43.39% |          51      7.33%     50.72% |          51      7.33%     58.05% |          51      7.33%     65.37% |          34      4.89%     70.26% |          34      4.89%     75.14% |          19      2.73%     77.87% |          36      5.17%     83.05% |          51      7.33%     90.37% |          37      5.32%     95.69% |          30      4.31%    100.00% (Unspecified)
board.cache_hierarchy.ruby_system.L2Cache_Controller.NP.L1_GETX::total          696                       (Unspecified)
board.cache_hierarchy.ruby_system.L2Cache_Controller.SS.L1_GET_INSTR |         110      4.21%      4.21% |         138      5.28%      9.49% |         192      7.35%     16.83% |         218      8.34%     25.17% |         190      7.27%     32.44% |         165      6.31%     38.75% |         193      7.38%     46.14% |         150      5.74%     51.87% |         196      7.50%     59.37% |         177      6.77%     66.14% |         164      6.27%     72.42% |         170      6.50%     78.92% |         171      6.54%     85.46% |         161      6.16%     91.62% |         131      5.01%     96.63% |          88      3.37%    100.00% (Unspecified)
board.cache_hierarchy.ruby_system.L2Cache_Controller.SS.L1_GET_INSTR::total         2614                       (Unspecified)
board.cache_hierarchy.ruby_system.L2Cache_Controller.SS.L1_GETS |        1812      6.20%      6.20% |        1811      6.20%     12.41% |        1828      6.26%     18.66% |        1833      6.28%     24.94% |        1823      6.24%     31.18% |        1804      6.18%     37.36% |        1834      6.28%     43.64% |        1812      6.20%     49.84% |        1828      6.26%     56.10% |        1841      6.30%     62.41% |        1834      6.28%     68.69% |        1813      6.21%     74.89% |        1823      6.24%     81.14% |        1828      6.26%     87.40% |        1838      6.29%     93.69% |        1843      6.31%    100.00% (Unspecified)
board.cache_hierarchy.ruby_system.L2Cache_Controller.SS.L1_GETS::total        29205                       (Unspecified)
board.cache_hierarchy.ruby_system.L2Cache_Controller.SS.L1_GETX |           0      0.00%      0.00% |           0      0.00%      0.00% |           0      0.00%      0.00% |           0      0.00%      0.00% |           0      0.00%      0.00% |           0      0.00%      0.00% |           0      0.00%      0.00% |           0      0.00%      0.00% |           0      0.00%      0.00% |           0      0.00%      0.00% |           3    100.00%    100.00% |           0      0.00%    100.00% |           0      0.00%    100.00% |           0      0.00%    100.00% |           0      0.00%    100.00% |           0      0.00%    100.00% (Unspecified)
board.cache_hierarchy.ruby_system.L2Cache_Controller.SS.L1_GETX::total            3                       (Unspecified)
board.cache_hierarchy.ruby_system.L2Cache_Controller.SS.L1_UPGRADE |           1      0.46%      0.46% |          55     25.11%     25.57% |          29     13.24%     38.81% |          14      6.39%     45.21% |          14      6.39%     51.60% |          33     15.07%     66.67% |           4      1.83%     68.49% |           5      2.28%     70.78% |           2      0.91%     71.69% |           2      0.91%     72.60% |          25     11.42%     84.02% |           0      0.00%     84.02% |          14      6.39%     90.41% |           3      1.37%     91.78% |          17      7.76%     99.54% |           1      0.46%    100.00% (Unspecified)
board.cache_hierarchy.ruby_system.L2Cache_Controller.SS.L1_UPGRADE::total          219                       (Unspecified)
board.cache_hierarchy.ruby_system.L2Cache_Controller.M.L1_GETS |         125      6.14%      6.14% |         145      7.12%     13.26% |         132      6.48%     19.74% |         147      7.22%     26.96% |         136      6.68%     33.64% |         139      6.83%     40.47% |         137      6.73%     47.20% |         133      6.53%     53.73% |         133      6.53%     60.27% |         115      5.65%     65.91% |         119      5.84%     71.76% |         111      5.45%     77.21% |         119      5.84%     83.06% |         119      5.84%     88.90% |         117      5.75%     94.65% |         109      5.35%    100.00% (Unspecified)
board.cache_hierarchy.ruby_system.L2Cache_Controller.M.L1_GETS::total         2036                       (Unspecified)
board.cache_hierarchy.ruby_system.L2Cache_Controller.M.L1_GETX |           2      3.28%      3.28% |           1      1.64%      4.92% |           1      1.64%      6.56% |           2      3.28%      9.84% |          20     32.79%     42.62% |          16     26.23%     68.85% |           1      1.64%     70.49% |           1      1.64%     72.13% |           1      1.64%     73.77% |           1      1.64%     75.41% |           1      1.64%     77.05% |           1      1.64%     78.69% |          13     21.31%    100.00% |           0      0.00%    100.00% |           0      0.00%    100.00% |           0      0.00%    100.00% (Unspecified)
board.cache_hierarchy.ruby_system.L2Cache_Controller.M.L1_GETX::total           61                       (Unspecified)
board.cache_hierarchy.ruby_system.L2Cache_Controller.MT.L1_GETS |         131      5.47%      5.47% |         198      8.27%     13.74% |         176      7.35%     21.09% |         160      6.68%     27.77% |         144      6.01%     33.78% |         177      7.39%     41.17% |         135      5.64%     46.81% |         134      5.59%     52.40% |         132      5.51%     57.91% |         150      6.26%     64.18% |         158      6.60%     70.77% |         128      5.34%     76.12% |         143      5.97%     82.09% |         148      6.18%     88.27% |         149      6.22%     94.49% |         132      5.51%    100.00% (Unspecified)
board.cache_hierarchy.ruby_system.L2Cache_Controller.MT.L1_GETS::total         2395                       (Unspecified)
board.cache_hierarchy.ruby_system.L2Cache_Controller.MT.L1_GETX |       32702     99.42%     99.42% |           3      0.01%     99.43% |           0      0.00%     99.43% |           0      0.00%     99.43% |          18      0.05%     99.48% |          28      0.09%     99.57% |          24      0.07%     99.64% |          28      0.09%     99.72% |          28      0.09%     99.81% |          12      0.04%     99.84% |          12      0.04%     99.88% |          12      0.04%     99.92% |          15      0.05%     99.96% |          12      0.04%    100.00% |           0      0.00%    100.00% |           0      0.00%    100.00% (Unspecified)
board.cache_hierarchy.ruby_system.L2Cache_Controller.MT.L1_GETX::total        32894                       (Unspecified)
board.cache_hierarchy.ruby_system.L2Cache_Controller.MT.L1_PUTX |          24      4.21%      4.21% |          49      8.60%     12.81% |          31      5.44%     18.25% |          47      8.25%     26.49% |          62     10.88%     37.37% |          63     11.05%     48.42% |          46      8.07%     56.49% |          47      8.25%     64.74% |          47      8.25%     72.98% |          31      5.44%     78.42% |          31      5.44%     83.86% |          10      1.75%     85.61% |          29      5.09%     90.70% |          30      5.26%     95.96% |          15      2.63%     98.60% |           8      1.40%    100.00% (Unspecified)
board.cache_hierarchy.ruby_system.L2Cache_Controller.MT.L1_PUTX::total          570                       (Unspecified)
board.cache_hierarchy.ruby_system.L2Cache_Controller.ISS.Mem_Data |           0      0.00%      0.00% |           2      2.94%      2.94% |           0      0.00%      2.94% |           0      0.00%      2.94% |          16     23.53%     26.47% |           1      1.47%     27.94% |           2      2.94%     30.88% |           0      0.00%     30.88% |           1      1.47%     32.35% |          17     25.00%     57.35% |           2      2.94%     60.29% |           0      0.00%     60.29% |           1      1.47%     61.76% |           0      0.00%     61.76% |           9     13.24%     75.00% |          17     25.00%    100.00% (Unspecified)
board.cache_hierarchy.ruby_system.L2Cache_Controller.ISS.Mem_Data::total           68                       (Unspecified)
board.cache_hierarchy.ruby_system.L2Cache_Controller.IS.L1_GET_INSTR |           0      0.00%      0.00% |           0      0.00%      0.00% |           1    100.00%    100.00% |           0      0.00%    100.00% |           0      0.00%    100.00% |           0      0.00%    100.00% |           0      0.00%    100.00% |           0      0.00%    100.00% |           0      0.00%    100.00% |           0      0.00%    100.00% |           0      0.00%    100.00% |           0      0.00%    100.00% |           0      0.00%    100.00% |           0      0.00%    100.00% |           0      0.00%    100.00% |           0      0.00%    100.00% (Unspecified)
board.cache_hierarchy.ruby_system.L2Cache_Controller.IS.L1_GET_INSTR::total            1                       (Unspecified)
board.cache_hierarchy.ruby_system.L2Cache_Controller.IS.Mem_Data |          25      6.61%      6.61% |          25      6.61%     13.23% |          26      6.88%     20.11% |          28      7.41%     27.51% |          26      6.88%     34.39% |          25      6.61%     41.01% |          20      5.29%     46.30% |          18      4.76%     51.06% |          20      5.29%     56.35% |          24      6.35%     62.70% |          24      6.35%     69.05% |          21      5.56%     74.60% |          27      7.14%     81.75% |          26      6.88%     88.62% |          21      5.56%     94.18% |          22      5.82%    100.00% (Unspecified)
board.cache_hierarchy.ruby_system.L2Cache_Controller.IS.Mem_Data::total          378                       (Unspecified)
board.cache_hierarchy.ruby_system.L2Cache_Controller.IM.Mem_Data |          34      4.89%      4.89% |          47      6.75%     11.64% |          51      7.33%     18.97% |          51      7.33%     26.29% |          51      7.33%     33.62% |          68      9.77%     43.39% |          51      7.33%     50.72% |          51      7.33%     58.05% |          51      7.33%     65.37% |          34      4.89%     70.26% |          34      4.89%     75.14% |          19      2.73%     77.87% |          36      5.17%     83.05% |          51      7.33%     90.37% |          37      5.32%     95.69% |          30      4.31%    100.00% (Unspecified)
board.cache_hierarchy.ruby_system.L2Cache_Controller.IM.Mem_Data::total          696                       (Unspecified)
board.cache_hierarchy.ruby_system.L2Cache_Controller.SS_MB.L1_GETS |           0      0.00%      0.00% |           0      0.00%      0.00% |           0      0.00%      0.00% |           0      0.00%      0.00% |           0      0.00%      0.00% |           0      0.00%      0.00% |           0      0.00%      0.00% |           0      0.00%      0.00% |           0      0.00%      0.00% |           0      0.00%      0.00% |           1    100.00%    100.00% |           0      0.00%    100.00% |           0      0.00%    100.00% |           0      0.00%    100.00% |           0      0.00%    100.00% |           0      0.00%    100.00% (Unspecified)
board.cache_hierarchy.ruby_system.L2Cache_Controller.SS_MB.L1_GETS::total            1                       (Unspecified)
board.cache_hierarchy.ruby_system.L2Cache_Controller.SS_MB.Exclusive_Unblock |           1      0.45%      0.45% |          55     24.77%     25.23% |          29     13.06%     38.29% |          14      6.31%     44.59% |          14      6.31%     50.90% |          33     14.86%     65.77% |           4      1.80%     67.57% |           5      2.25%     69.82% |           2      0.90%     70.72% |           2      0.90%     71.62% |          28     12.61%     84.23% |           0      0.00%     84.23% |          14      6.31%     90.54% |           3      1.35%     91.89% |          17      7.66%     99.55% |           1      0.45%    100.00% (Unspecified)
board.cache_hierarchy.ruby_system.L2Cache_Controller.SS_MB.Exclusive_Unblock::total          222                       (Unspecified)
board.cache_hierarchy.ruby_system.L2Cache_Controller.MT_MB.L1_GETX |      353160    100.00%    100.00% |           0      0.00%    100.00% |           0      0.00%    100.00% |           0      0.00%    100.00% |           0      0.00%    100.00% |           0      0.00%    100.00% |           0      0.00%    100.00% |           0      0.00%    100.00% |           0      0.00%    100.00% |           0      0.00%    100.00% |           0      0.00%    100.00% |           0      0.00%    100.00% |           0      0.00%    100.00% |           0      0.00%    100.00% |           0      0.00%    100.00% |           0      0.00%    100.00% (Unspecified)
board.cache_hierarchy.ruby_system.L2Cache_Controller.MT_MB.L1_GETX::total       353160                       (Unspecified)
board.cache_hierarchy.ruby_system.L2Cache_Controller.MT_MB.Exclusive_Unblock |       32863     91.91%     91.91% |         198      0.55%     92.47% |         184      0.51%     92.98% |         200      0.56%     93.54% |         241      0.67%     94.21% |         252      0.70%     94.92% |         215      0.60%     95.52% |         213      0.60%     96.12% |         214      0.60%     96.71% |         179      0.50%     97.21% |         168      0.47%     97.68% |         143      0.40%     98.08% |         184      0.51%     98.60% |         182      0.51%     99.11% |         163      0.46%     99.56% |         156      0.44%    100.00% (Unspecified)
board.cache_hierarchy.ruby_system.L2Cache_Controller.MT_MB.Exclusive_Unblock::total        35755                       (Unspecified)
board.cache_hierarchy.ruby_system.L2Cache_Controller.MT_IIB.L1_GETX |           0      0.00%      0.00% |           0      0.00%      0.00% |           0      0.00%      0.00% |           0      0.00%      0.00% |           0      0.00%      0.00% |           0      0.00%      0.00% |           0      0.00%      0.00% |           0      0.00%      0.00% |           0      0.00%      0.00% |           0      0.00%      0.00% |           1    100.00%    100.00% |           0      0.00%    100.00% |           0      0.00%    100.00% |           0      0.00%    100.00% |           0      0.00%    100.00% |           0      0.00%    100.00% (Unspecified)
board.cache_hierarchy.ruby_system.L2Cache_Controller.MT_IIB.L1_GETX::total            1                       (Unspecified)
board.cache_hierarchy.ruby_system.L2Cache_Controller.MT_IIB.WB_Data |          22      4.12%      4.12% |          68     12.73%     16.85% |          62     11.61%     28.46% |          29      5.43%     33.90% |          29      5.43%     39.33% |          58     10.86%     50.19% |          17      3.18%     53.37% |          20      3.75%     57.12% |          19      3.56%     60.67% |          38      7.12%     67.79% |          33      6.18%     73.97% |          20      3.75%     77.72% |          29      5.43%     83.15% |          32      5.99%     89.14% |          34      6.37%     95.51% |          24      4.49%    100.00% (Unspecified)
board.cache_hierarchy.ruby_system.L2Cache_Controller.MT_IIB.WB_Data::total          534                       (Unspecified)
board.cache_hierarchy.ruby_system.L2Cache_Controller.MT_IIB.WB_Data_clean |         108      5.98%      5.98% |         111      6.14%     12.12% |         114      6.31%     18.43% |         115      6.36%     24.79% |         114      6.31%     31.10% |         118      6.53%     37.63% |         116      6.42%     44.05% |         113      6.25%     50.30% |         113      6.25%     56.56% |         112      6.20%     62.76% |         115      6.36%     69.12% |         108      5.98%     75.10% |         114      6.31%     81.41% |         116      6.42%     87.83% |         113      6.25%     94.08% |         107      5.92%    100.00% (Unspecified)
board.cache_hierarchy.ruby_system.L2Cache_Controller.MT_IIB.WB_Data_clean::total         1807                       (Unspecified)
board.cache_hierarchy.ruby_system.L2Cache_Controller.MT_IIB.Unblock |           1      1.85%      1.85% |          19     35.19%     37.04% |           0      0.00%     37.04% |          16     29.63%     66.67% |           1      1.85%     68.52% |           1      1.85%     70.37% |           2      3.70%     74.07% |           1      1.85%     75.93% |           0      0.00%     75.93% |           0      0.00%     75.93% |          10     18.52%     94.44% |           0      0.00%     94.44% |           0      0.00%     94.44% |           0      0.00%     94.44% |           2      3.70%     98.15% |           1      1.85%    100.00% (Unspecified)
board.cache_hierarchy.ruby_system.L2Cache_Controller.MT_IIB.Unblock::total           54                       (Unspecified)
board.cache_hierarchy.ruby_system.L2Cache_Controller.MT_IB.WB_Data |           1      2.86%      2.86% |          17     48.57%     51.43% |           0      0.00%     51.43% |           1      2.86%     54.29% |           1      2.86%     57.14% |           1      2.86%     60.00% |           2      5.71%     65.71% |           1      2.86%     68.57% |           0      0.00%     68.57% |           0      0.00%     68.57% |          10     28.57%     97.14% |           0      0.00%     97.14% |           0      0.00%     97.14% |           0      0.00%     97.14% |           0      0.00%     97.14% |           1      2.86%    100.00% (Unspecified)
board.cache_hierarchy.ruby_system.L2Cache_Controller.MT_IB.WB_Data::total           35                       (Unspecified)
board.cache_hierarchy.ruby_system.L2Cache_Controller.MT_IB.WB_Data_clean |           0      0.00%      0.00% |           2     10.53%     10.53% |           0      0.00%     10.53% |          15     78.95%     89.47% |           0      0.00%     89.47% |           0      0.00%     89.47% |           0      0.00%     89.47% |           0      0.00%     89.47% |           0      0.00%     89.47% |           0      0.00%     89.47% |           0      0.00%     89.47% |           0      0.00%     89.47% |           0      0.00%     89.47% |           0      0.00%     89.47% |           2     10.53%    100.00% |           0      0.00%    100.00% (Unspecified)
board.cache_hierarchy.ruby_system.L2Cache_Controller.MT_IB.WB_Data_clean::total           19                       (Unspecified)
board.cache_hierarchy.ruby_system.L2Cache_Controller.MT_SB.L1_GETS |           0      0.00%      0.00% |           0      0.00%      0.00% |           0      0.00%      0.00% |           0      0.00%      0.00% |           0      0.00%      0.00% |           0      0.00%      0.00% |           0      0.00%      0.00% |           0      0.00%      0.00% |           0      0.00%      0.00% |           0      0.00%      0.00% |           1    100.00%    100.00% |           0      0.00%    100.00% |           0      0.00%    100.00% |           0      0.00%    100.00% |           0      0.00%    100.00% |           0      0.00%    100.00% (Unspecified)
board.cache_hierarchy.ruby_system.L2Cache_Controller.MT_SB.L1_GETS::total            1                       (Unspecified)
board.cache_hierarchy.ruby_system.L2Cache_Controller.MT_SB.L1_UPGRADE |           0      0.00%      0.00% |           0      0.00%      0.00% |           0      0.00%      0.00% |           0      0.00%      0.00% |           0      0.00%      0.00% |           0      0.00%      0.00% |           0      0.00%      0.00% |           0      0.00%      0.00% |           0      0.00%      0.00% |           0      0.00%      0.00% |           1    100.00%    100.00% |           0      0.00%    100.00% |           0      0.00%    100.00% |           0      0.00%    100.00% |           0      0.00%    100.00% |           0      0.00%    100.00% (Unspecified)
board.cache_hierarchy.ruby_system.L2Cache_Controller.MT_SB.L1_UPGRADE::total            1                       (Unspecified)
board.cache_hierarchy.ruby_system.L2Cache_Controller.MT_SB.Unblock |         130      5.55%      5.55% |         179      7.65%     13.20% |         176      7.52%     20.72% |         144      6.15%     26.87% |         143      6.11%     32.98% |         176      7.52%     40.50% |         133      5.68%     46.18% |         133      5.68%     51.86% |         132      5.64%     57.50% |         150      6.41%     63.90% |         148      6.32%     70.23% |         128      5.47%     75.69% |         143      6.11%     81.80% |         148      6.32%     88.12% |         147      6.28%     94.40% |         131      5.60%    100.00% (Unspecified)
board.cache_hierarchy.ruby_system.L2Cache_Controller.MT_SB.Unblock::total         2341                       (Unspecified)
board.cache_hierarchy.ruby_system.RequestType.LD.latency_hist_seqr::bucket_size           32                       (Unspecified)
board.cache_hierarchy.ruby_system.RequestType.LD.latency_hist_seqr::max_bucket          319                       (Unspecified)
board.cache_hierarchy.ruby_system.RequestType.LD.latency_hist_seqr::samples       251020                       (Unspecified)
board.cache_hierarchy.ruby_system.RequestType.LD.latency_hist_seqr::mean     3.770385                       (Unspecified)
board.cache_hierarchy.ruby_system.RequestType.LD.latency_hist_seqr::gmean     1.506661                       (Unspecified)
board.cache_hierarchy.ruby_system.RequestType.LD.latency_hist_seqr::stdev     7.550606                       (Unspecified)
board.cache_hierarchy.ruby_system.RequestType.LD.latency_hist_seqr |      249225     99.28%     99.28% |        1727      0.69%     99.97% |           0      0.00%     99.97% |           0      0.00%     99.97% |          41      0.02%     99.99% |          16      0.01%    100.00% |           3      0.00%    100.00% |           8      0.00%    100.00% |           0      0.00%    100.00% |           0      0.00%    100.00% (Unspecified)
board.cache_hierarchy.ruby_system.RequestType.LD.latency_hist_seqr::total       251020                       (Unspecified)
board.cache_hierarchy.ruby_system.RequestType.LD.hit_latency_hist_seqr::bucket_size            1                       (Unspecified)
board.cache_hierarchy.ruby_system.RequestType.LD.hit_latency_hist_seqr::max_bucket            9                       (Unspecified)
board.cache_hierarchy.ruby_system.RequestType.LD.hit_latency_hist_seqr::samples       217316                       (Unspecified)
board.cache_hierarchy.ruby_system.RequestType.LD.hit_latency_hist_seqr::mean     1.000046                       (Unspecified)
board.cache_hierarchy.ruby_system.RequestType.LD.hit_latency_hist_seqr::gmean     1.000032                       (Unspecified)
board.cache_hierarchy.ruby_system.RequestType.LD.hit_latency_hist_seqr::stdev     0.006783                       (Unspecified)
board.cache_hierarchy.ruby_system.RequestType.LD.hit_latency_hist_seqr |           0      0.00%      0.00% |      217306    100.00%    100.00% |          10      0.00%    100.00% |           0      0.00%    100.00% |           0      0.00%    100.00% |           0      0.00%    100.00% |           0      0.00%    100.00% |           0      0.00%    100.00% |           0      0.00%    100.00% |           0      0.00%    100.00% (Unspecified)
board.cache_hierarchy.ruby_system.RequestType.LD.hit_latency_hist_seqr::total       217316                       (Unspecified)
board.cache_hierarchy.ruby_system.RequestType.LD.miss_latency_hist_seqr::bucket_size           32                       (Unspecified)
[...]
board.processor.cores9.core.executeStats0.numIntRegReads       234278                       # Number of times the integer registers were read (Count)
board.processor.cores9.core.executeStats0.numIntRegWrites       133487                       # Number of times the integer registers were written (Count)
board.processor.cores9.core.executeStats0.numMemRefs        60819                       # Number of memory refs (Count)
board.processor.cores9.core.executeStats0.numMiscRegReads        86803                       # Number of times the Misc registers were read (Count)
board.processor.cores9.core.executeStats0.numMiscRegWrites            1                       # Number of times the Misc registers were written (Count)
board.processor.cores9.core.executeStats0.numVecAluAccesses            0                       # Number of vector alu accesses (Count)
board.processor.cores9.core.executeStats0.numDiscardedOps            0                       # Number of ops (including micro ops) which were discarded before commit (Count)
board.processor.cores9.core.fetch.predictedBranches        23079                       # Number of branches that fetch has predicted taken (Count)
board.processor.cores9.core.fetch.cycles       876701                       # Number of cycles fetch has run and was not squashing or blocked (Cycle)
board.processor.cores9.core.fetch.squashCycles         4562                       # Number of cycles fetch has spent squashing (Cycle)
board.processor.cores9.core.fetch.miscStallCycles           21                       # Number of cycles fetch has spent waiting on interrupts, or bad addresses, or out of MSHRs (Cycle)
board.processor.cores9.core.fetch.pendingTrapStallCycles          171                       # Number of stall cycles due to pending traps (Cycle)
board.processor.cores9.core.fetch.cacheLines        33604                       # Number of cache lines fetched (Count)
board.processor.cores9.core.fetch.icacheSquashes           79                       # Number of outstanding Icache misses that were squashed (Count)
board.processor.cores9.core.fetch.nisnDist::samples       917332                       # Number of instructions fetched each cycle (Total) (Count)
board.processor.cores9.core.fetch.nisnDist::mean     0.401866                       # Number of instructions fetched each cycle (Total) (Count)
board.processor.cores9.core.fetch.nisnDist::stdev     1.623608                       # Number of instructions fetched each cycle (Total) (Count)
board.processor.cores9.core.fetch.nisnDist::underflows            0      0.00%      0.00% # Number of instructions fetched each cycle (Total) (Count)
board.processor.cores9.core.fetch.nisnDist::0       858420     93.58%     93.58% # Number of instructions fetched each cycle (Total) (Count)
board.processor.cores9.core.fetch.nisnDist::1           80      0.01%     93.59% # Number of instructions fetched each cycle (Total) (Count)
board.processor.cores9.core.fetch.nisnDist::2         6177      0.67%     94.26% # Number of instructions fetched each cycle (Total) (Count)
board.processor.cores9.core.fetch.nisnDist::3           83      0.01%     94.27% # Number of instructions fetched each cycle (Total) (Count)
board.processor.cores9.core.fetch.nisnDist::4        10311      1.12%     95.39% # Number of instructions fetched each cycle (Total) (Count)
board.processor.cores9.core.fetch.nisnDist::5          161      0.02%     95.41% # Number of instructions fetched each cycle (Total) (Count)
board.processor.cores9.core.fetch.nisnDist::6        10347      1.13%     96.54% # Number of instructions fetched each cycle (Total) (Count)
board.processor.cores9.core.fetch.nisnDist::7         2193      0.24%     96.78% # Number of instructions fetched each cycle (Total) (Count)
board.processor.cores9.core.fetch.nisnDist::8        29560      3.22%    100.00% # Number of instructions fetched each cycle (Total) (Count)
board.processor.cores9.core.fetch.nisnDist::overflows            0      0.00%    100.00% # Number of instructions fetched each cycle (Total) (Count)
board.processor.cores9.core.fetch.nisnDist::min_value            0                       # Number of instructions fetched each cycle (Total) (Count)
board.processor.cores9.core.fetch.nisnDist::max_value            8                       # Number of instructions fetched each cycle (Total) (Count)
board.processor.cores9.core.fetch.nisnDist::total       917332                       # Number of instructions fetched each cycle (Total) (Count)
board.processor.cores9.core.fetchStats0.numInsts       242593                       # Number of instructions fetched (thread level) (Count)
board.processor.cores9.core.fetchStats0.numOps            0                       # Number of ops (including micro ops) fetched (thread level) (Count)
board.processor.cores9.core.fetchStats0.fetchRate     0.264394                       # Number of inst fetches per cycle ((Count/Cycle))
board.processor.cores9.core.fetchStats0.numBranches        23733                       # Number of branches fetched (Count)
board.processor.cores9.core.fetchStats0.branchRate     0.025866                       # Number of branch fetches per cycle (Ratio)
board.processor.cores9.core.fetchStats0.icacheStallCycles        38158                       # ICache total stall cycles (Cycle)
board.processor.cores9.core.fetchStats0.numFetchSuspends            0                       # Number of times Execute suspended instruction fetching (Count)
board.processor.cores9.core.iew.idleCycles            0                       # Number of cycles IEW is idle (Cycle)
board.processor.cores9.core.iew.squashCycles         2165                       # Number of cycles IEW is squashing (Cycle)
board.processor.cores9.core.iew.blockCycles       788808                       # Number of cycles IEW is blocking (Cycle)
board.processor.cores9.core.iew.unblockCycles         4131                       # Number of cycles IEW is unblocking (Cycle)
board.processor.cores9.core.iew.dispatchedInsts       284295                       # Number of instructions dispatched to IQ (Count)
board.processor.cores9.core.iew.dispSquashedInsts            2                       # Number of squashed instructions skipped by dispatch (Count)
board.processor.cores9.core.iew.dispLoadInsts        74816                       # Number of dispatched load instructions (Count)
board.processor.cores9.core.iew.dispStoreInsts        35552                       # Number of dispatched store instructions (Count)
board.processor.cores9.core.iew.dispNonSpecInsts         6177                       # Number of dispatched non-speculative instructions (Count)
board.processor.cores9.core.iew.iqFullEvents           30                       # Number of times the IQ has become full, causing a stall (Count)
board.processor.cores9.core.iew.lsqFullEvents            1                       # Number of times the LSQ has become full, causing a stall (Count)
board.processor.cores9.core.iew.memOrderViolationEvents         4100                       # Number of memory order violations (Count)
board.processor.cores9.core.iew.predictedTakenIncorrect            8                       # Number of branches that were predicted taken incorrectly (Count)
board.processor.cores9.core.iew.predictedNotTakenIncorrect          105                       # Number of branches that were predicted not taken incorrectly (Count)
board.processor.cores9.core.iew.branchMispredicts          113                       # Number of branch mispredicts detected at execute (Count)
board.processor.cores9.core.iew.instsToCommit       180418                       # Cumulative count of insts sent to commit (Count)
board.processor.cores9.core.iew.writebackCount       180307                       # Cumulative count of insts written-back (Count)
board.processor.cores9.core.iew.producerInst       118804                       # Number of instructions producing a value (Count)
board.processor.cores9.core.iew.consumerInst       221434                       # Number of instructions consuming a value (Count)
board.processor.cores9.core.iew.wbRate       0.196511                       # Insts written-back per cycle ((Count/Cycle))
board.processor.cores9.core.iew.wbFanout     0.536521                       # Average fanout of values written-back ((Count/Count))
board.processor.cores9.core.interrupts.clk_domain.clock         5328                       # Clock period in ticks (Tick)
board.processor.cores9.core.lsq0.forwLoads         4282                       # Number of loads that had data forwarded from stores (Count)
board.processor.cores9.core.lsq0.squashedLoads        47626                       # Number of loads squashed (Count)
board.processor.cores9.core.lsq0.ignoredResponses            1                       # Number of memory responses ignored because the instruction is squashed (Count)
board.processor.cores9.core.lsq0.memOrderViolation         4100                       # Number of memory ordering violations (Count)
board.processor.cores9.core.lsq0.squashedStores        22824                       # Number of stores squashed (Count)
board.processor.cores9.core.lsq0.rescheduledLoads            0                       # Number of loads that were rescheduled (Count)
board.processor.cores9.core.lsq0.blockedByCache            2                       # Number of times an access to memory failed due to the cache being blocked (Count)
board.processor.cores9.core.lsq0.loadToUse::samples        27190                       # Distribution of cycle latency between the first time a load is issued and its completion (Unspecified)
board.processor.cores9.core.lsq0.loadToUse::mean    30.830930                       # Distribution of cycle latency between the first time a load is issued and its completion (Unspecified)
board.processor.cores9.core.lsq0.loadToUse::stdev    93.780523                       # Distribution of cycle latency between the first time a load is issued and its completion (Unspecified)
board.processor.cores9.core.lsq0.loadToUse::0-9        23030     84.70%     84.70% # Distribution of cycle latency between the first time a load is issued and its completion (Unspecified)
board.processor.cores9.core.lsq0.loadToUse::10-19          135      0.50%     85.20% # Distribution of cycle latency between the first time a load is issued and its completion (Unspecified)
board.processor.cores9.core.lsq0.loadToUse::20-29         1961      7.21%     92.41% # Distribution of cycle latency between the first time a load is issued and its completion (Unspecified)
board.processor.cores9.core.lsq0.loadToUse::30-39           12      0.04%     92.45% # Distribution of cycle latency between the first time a load is issued and its completion (Unspecified)
board.processor.cores9.core.lsq0.loadToUse::110-119            1      0.00%     92.46% # Distribution of cycle latency between the first time a load is issued and its completion (Unspecified)
board.processor.cores9.core.lsq0.loadToUse::130-139            1      0.00%     92.46% # Distribution of cycle latency between the first time a load is issued and its completion (Unspecified)
board.processor.cores9.core.lsq0.loadToUse::140-149           27      0.10%     92.56% # Distribution of cycle latency between the first time a load is issued and its completion (Unspecified)
board.processor.cores9.core.lsq0.loadToUse::150-159            2      0.01%     92.57% # Distribution of cycle latency between the first time a load is issued and its completion (Unspecified)
board.processor.cores9.core.lsq0.loadToUse::160-169            1      0.00%     92.57% # Distribution of cycle latency between the first time a load is issued and its completion (Unspecified)
board.processor.cores9.core.lsq0.loadToUse::170-179           55      0.20%     92.77% # Distribution of cycle latency between the first time a load is issued and its completion (Unspecified)
board.processor.cores9.core.lsq0.loadToUse::180-189            3      0.01%     92.78% # Distribution of cycle latency between the first time a load is issued and its completion (Unspecified)
board.processor.cores9.core.lsq0.loadToUse::190-199            1      0.00%     92.79% # Distribution of cycle latency between the first time a load is issued and its completion (Unspecified)
board.processor.cores9.core.lsq0.loadToUse::200-209           52      0.19%     92.98% # Distribution of cycle latency between the first time a load is issued and its completion (Unspecified)
board.processor.cores9.core.lsq0.loadToUse::210-219            2      0.01%     92.99% # Distribution of cycle latency between the first time a load is issued and its completion (Unspecified)
board.processor.cores9.core.lsq0.loadToUse::220-229            1      0.00%     92.99% # Distribution of cycle latency between the first time a load is issued and its completion (Unspecified)
board.processor.cores9.core.lsq0.loadToUse::230-239           56      0.21%     93.20% # Distribution of cycle latency between the first time a load is issued and its completion (Unspecified)
board.processor.cores9.core.lsq0.loadToUse::240-249            4      0.01%     93.21% # Distribution of cycle latency between the first time a load is issued and its completion (Unspecified)
board.processor.cores9.core.lsq0.loadToUse::250-259            1      0.00%     93.21% # Distribution of cycle latency between the first time a load is issued and its completion (Unspecified)
board.processor.cores9.core.lsq0.loadToUse::260-269           55      0.20%     93.42% # Distribution of cycle latency between the first time a load is issued and its completion (Unspecified)
board.processor.cores9.core.lsq0.loadToUse::270-279            6      0.02%     93.44% # Distribution of cycle latency between the first time a load is issued and its completion (Unspecified)
board.processor.cores9.core.lsq0.loadToUse::280-289            1      0.00%     93.44% # Distribution of cycle latency between the first time a load is issued and its completion (Unspecified)
board.processor.cores9.core.lsq0.loadToUse::290-299           65      0.24%     93.68% # Distribution of cycle latency between the first time a load is issued and its completion (Unspecified)
board.processor.cores9.core.lsq0.loadToUse::overflows         1718      6.32%    100.00% # Distribution of cycle latency between the first time a load is issued and its completion (Unspecified)
board.processor.cores9.core.lsq0.loadToUse::min_value            2                       # Distribution of cycle latency between the first time a load is issued and its completion (Unspecified)
board.processor.cores9.core.lsq0.loadToUse::max_value          389                       # Distribution of cycle latency between the first time a load is issued and its completion (Unspecified)
board.processor.cores9.core.lsq0.loadToUse::total        27190                       # Distribution of cycle latency between the first time a load is issued and its completion (Unspecified)
board.processor.cores9.core.mmu.dtb.rdAccesses        41785                       # TLB accesses on read requests (Count)
board.processor.cores9.core.mmu.dtb.wrAccesses        19030                       # TLB accesses on write requests (Count)
board.processor.cores9.core.mmu.dtb.rdMisses           96                       # TLB misses on read requests (Count)
board.processor.cores9.core.mmu.dtb.wrMisses           10                       # TLB misses on write requests (Count)
board.processor.cores9.core.mmu.dtb.walker.power_state.pwrStateResidencyTicks::UNDEFINED    574466625                       # Cumulative time (in ticks) in various power states (Tick)
board.processor.cores9.core.mmu.itb.rdAccesses            0                       # TLB accesses on read requests (Count)
board.processor.cores9.core.mmu.itb.wrAccesses        33629                       # TLB accesses on write requests (Count)
board.processor.cores9.core.mmu.itb.rdMisses            0                       # TLB misses on read requests (Count)
board.processor.cores9.core.mmu.itb.wrMisses           67                       # TLB misses on write requests (Count)
board.processor.cores9.core.mmu.itb.walker.power_state.pwrStateResidencyTicks::UNDEFINED    574466625                       # Cumulative time (in ticks) in various power states (Tick)
board.processor.cores9.core.power_state.pwrStateResidencyTicks::ON    574466625                       # Cumulative time (in ticks) in various power states (Tick)
board.processor.cores9.core.rename.squashCycles         2165                       # Number of cycles rename is squashing (Cycle)
board.processor.cores9.core.rename.idleCycles        29977                       # Number of cycles rename is idle (Cycle)
board.processor.cores9.core.rename.blockCycles       809428                       # Number of cycles rename is blocking (Cycle)
board.processor.cores9.core.rename.serializeStallCycles            0                       # count of cycles rename stalled for serializing inst (Cycle)
board.processor.cores9.core.rename.runCycles        33988                       # Number of cycles rename is running (Cycle)
board.processor.cores9.core.rename.unblockCycles        41774                       # Number of cycles rename is unblocking (Cycle)
board.processor.cores9.core.rename.renamedInsts       301011                       # Number of instructions processed by rename (Count)
board.processor.cores9.core.rename.IQFullEvents        39040                       # Number of times rename has blocked due to IQ full (Count)
board.processor.cores9.core.rename.LQFullEvents          108                       # Number of times rename has blocked due to LQ full (Count)
board.processor.cores9.core.rename.SQFullEvents          563                       # Number of times rename has blocked due to SQ full (Count)
board.processor.cores9.core.rename.renamedOperands       386406                       # Number of destination operands rename has renamed (Count)
board.processor.cores9.core.rename.lookups       894923                       # Number of register rename lookups that rename has made (Count)
board.processor.cores9.core.rename.intLookups       429644                       # Number of integer rename lookups (Count)
board.processor.cores9.core.rename.fpLookups           26                       # Number of floating rename lookups (Count)
board.processor.cores9.core.rename.committedMaps       130763                       # Number of HB maps that are committed (Count)
board.processor.cores9.core.rename.undoneMaps       255643                       # Number of HB maps that are undone due to squashing (Count)
board.processor.cores9.core.rename.serializing            0                       # count of serializing insts renamed (Count)
board.processor.cores9.core.rename.tempSerializing            0                       # count of temporary serializing insts renamed (Count)
board.processor.cores9.core.rename.skidInsts        62010                       # count of insts added to the skid buffer (Count)
board.processor.cores9.core.rob.reads         1176103                       # The number of ROB reads (Count)
board.processor.cores9.core.rob.writes         591259                       # The number of ROB writes (Count)
board.processor.cores9.core.thread_0.numInsts        65432                       # Number of Instructions committed (Count)
board.processor.cores9.core.thread_0.numOps       102431                       # Number of Ops committed (Count)
board.processor.cores9.core.thread_0.numMemRefs            0                       # Number of Memory References (Count)
board.workload.inst.arm                             0                       # number of arm instructions executed (Count)
board.workload.inst.quiesce                         0                       # number of quiesce instructions executed (Count)

---------- End Simulation Statistics   ----------
