
---------- Begin Simulation Statistics ----------
simSeconds                                   0.000103                       # Number of seconds simulated (Second)
simTicks                                    103221009                       # Number of ticks simulated (Tick)
finalTick                                   329055282                       # Number of ticks from beginning of simulation (restored from checkpoints and never reset) (Tick)
simFreq                                  1000000000000                       # The number of ticks per simulated second ((Tick/Second))
hostSeconds                                     25.48                       # Real time elapsed on the host (Second)
hostTickRate                                  4051345                       # The number of ticks simulated per host second (ticks/s) ((Tick/Second))
hostMemory                                    1755520                       # Number of bytes of host memory used (Byte)
simInsts                                      1796635                       # Number of instructions simulated (Count)
simOps                                        3022110                       # Number of ops (including micro ops) simulated (Count)
hostInstRate                                    70516                       # Simulator instruction rate (inst/s) ((Count/Second))
hostOpRate                                     118615                       # Simulator op (including micro ops) rate (op/s) ((Count/Second))
board.cache_hierarchy.ruby_system.delayHistogram::bucket_size            8                       # delay histogram for all message (Unspecified)
board.cache_hierarchy.ruby_system.delayHistogram::max_bucket           79                       # delay histogram for all message (Unspecified)
board.cache_hierarchy.ruby_system.delayHistogram::samples        21456                       # delay histogram for all message (Unspecified)
board.cache_hierarchy.ruby_system.delayHistogram::mean     0.460850                       # delay histogram for all message (Unspecified)
board.cache_hierarchy.ruby_system.delayHistogram::stdev     2.167654                       # delay histogram for all message (Unspecified)
board.cache_hierarchy.ruby_system.delayHistogram |       20608     96.05%     96.05% |         761      3.55%     99.59% |          54      0.25%     99.85% |          20      0.09%     99.94% |          12      0.06%    100.00% |           1      0.00%    100.00% |           0      0.00%    100.00% |           0      0.00%    100.00% |           0      0.00%    100.00% |           0      0.00%    100.00% # delay histogram for all message (Unspecified)
board.cache_hierarchy.ruby_system.delayHistogram::total        21456                       # delay histogram for all message (Unspecified)
board.cache_hierarchy.ruby_system.m_outstandReqHistSeqr::bucket_size            2                       (Unspecified)
board.cache_hierarchy.ruby_system.m_outstandReqHistSeqr::max_bucket           19                       (Unspecified)
board.cache_hierarchy.ruby_system.m_outstandReqHistSeqr::samples      1103251                       (Unspecified)
board.cache_hierarchy.ruby_system.m_outstandReqHistSeqr::mean     1.169509                       (Unspecified)
board.cache_hierarchy.ruby_system.m_outstandReqHistSeqr::gmean     1.110390                       (Unspecified)
board.cache_hierarchy.ruby_system.m_outstandReqHistSeqr::stdev     0.492663                       (Unspecified)
board.cache_hierarchy.ruby_system.m_outstandReqHistSeqr |      962602     87.25%     87.25% |      137883     12.50%     99.75% |        2420      0.22%     99.97% |         196      0.02%     99.99% |          64      0.01%     99.99% |          32      0.00%    100.00% |          47      0.00%    100.00% |           3      0.00%    100.00% |           4      0.00%    100.00% |           0      0.00%    100.00% (Unspecified)
board.cache_hierarchy.ruby_system.m_outstandReqHistSeqr::total      1103251                       (Unspecified)
board.cache_hierarchy.ruby_system.m_latencyHistSeqr::bucket_size          128                       (Unspecified)
board.cache_hierarchy.ruby_system.m_latencyHistSeqr::max_bucket         1279                       (Unspecified)
board.cache_hierarchy.ruby_system.m_latencyHistSeqr::samples      1103559                       (Unspecified)
board.cache_hierarchy.ruby_system.m_latencyHistSeqr::mean     1.275010                       (Unspecified)
board.cache_hierarchy.ruby_system.m_latencyHistSeqr::gmean     1.021785                       (Unspecified)
board.cache_hierarchy.ruby_system.m_latencyHistSeqr::stdev     6.259231                       (Unspecified)
board.cache_hierarchy.ruby_system.m_latencyHistSeqr |     1102442     99.90%     99.90% |        1096      0.10%    100.00% |          10      0.00%    100.00% |           0      0.00%    100.00% |           0      0.00%    100.00% |           0      0.00%    100.00% |           1      0.00%    100.00% |           1      0.00%    100.00% |           2      0.00%    100.00% |           7      0.00%    100.00% (Unspecified)
board.cache_hierarchy.ruby_system.m_latencyHistSeqr::total      1103559                       (Unspecified)
board.cache_hierarchy.ruby_system.m_hitLatencyHistSeqr::bucket_size           16                       (Unspecified)
board.cache_hierarchy.ruby_system.m_hitLatencyHistSeqr::max_bucket          159                       (Unspecified)
board.cache_hierarchy.ruby_system.m_hitLatencyHistSeqr::samples      1096592                       (Unspecified)
board.cache_hierarchy.ruby_system.m_hitLatencyHistSeqr::mean     1.000610                       (Unspecified)
board.cache_hierarchy.ruby_system.m_hitLatencyHistSeqr::gmean     1.000197                       (Unspecified)
board.cache_hierarchy.ruby_system.m_hitLatencyHistSeqr::stdev     0.209720                       (Unspecified)
board.cache_hierarchy.ruby_system.m_hitLatencyHistSeqr |     1096589    100.00%    100.00% |           0      0.00%    100.00% |           0      0.00%    100.00% |           0      0.00%    100.00% |           0      0.00%    100.00% |           0      0.00%    100.00% |           0      0.00%    100.00% |           2      0.00%    100.00% |           1      0.00%    100.00% |           0      0.00%    100.00% (Unspecified)
board.cache_hierarchy.ruby_system.m_hitLatencyHistSeqr::total      1096592                       (Unspecified)
board.cache_hierarchy.ruby_system.m_missLatencyHistSeqr::bucket_size          128                       (Unspecified)
board.cache_hierarchy.ruby_system.m_missLatencyHistSeqr::max_bucket         1279                       (Unspecified)
board.cache_hierarchy.ruby_system.m_missLatencyHistSeqr::samples         6967                       (Unspecified)
board.cache_hierarchy.ruby_system.m_missLatencyHistSeqr::mean    44.465050                       (Unspecified)
board.cache_hierarchy.ruby_system.m_missLatencyHistSeqr::gmean    29.446656                       (Unspecified)
board.cache_hierarchy.ruby_system.m_missLatencyHistSeqr::stdev    65.743246                       (Unspecified)
board.cache_hierarchy.ruby_system.m_missLatencyHistSeqr |        5851     83.98%     83.98% |        1095     15.72%     99.70% |          10      0.14%     99.84% |           0      0.00%     99.84% |           0      0.00%     99.84% |           0      0.00%     99.84% |           1      0.01%     99.86% |           1      0.01%     99.87% |           2      0.03%     99.90% |           7      0.10%    100.00% (Unspecified)
board.cache_hierarchy.ruby_system.m_missLatencyHistSeqr::total         6967                       (Unspecified)
board.cache_hierarchy.ruby_system.delayVCHist.vnet_0::bucket_size            4                       # delay histogram for vnet_0 (Unspecified)
board.cache_hierarchy.ruby_system.delayVCHist.vnet_0::max_bucket           39                       # delay histogram for vnet_0 (Unspecified)
board.cache_hierarchy.ruby_system.delayVCHist.vnet_0::samples        11048                       # delay histogram for vnet_0 (Unspecified)
board.cache_hierarchy.ruby_system.delayVCHist.vnet_0::mean     0.294171                       # delay histogram for vnet_0 (Unspecified)
board.cache_hierarchy.ruby_system.delayVCHist.vnet_0::stdev     1.528935                       # delay histogram for vnet_0 (Unspecified)
board.cache_hierarchy.ruby_system.delayVCHist.vnet_0 |       10649     96.39%     96.39% |          34      0.31%     96.70% |         356      3.22%     99.92% |           6      0.05%     99.97% |           0      0.00%     99.97% |           2      0.02%     99.99% |           0      0.00%     99.99% |           1      0.01%    100.00% |           0      0.00%    100.00% |           0      0.00%    100.00% # delay histogram for vnet_0 (Unspecified)
board.cache_hierarchy.ruby_system.delayVCHist.vnet_0::total        11048                       # delay histogram for vnet_0 (Unspecified)
board.cache_hierarchy.ruby_system.delayVCHist.vnet_1::bucket_size            8                       # delay histogram for vnet_1 (Unspecified)
board.cache_hierarchy.ruby_system.delayVCHist.vnet_1::max_bucket           79                       # delay histogram for vnet_1 (Unspecified)
board.cache_hierarchy.ruby_system.delayVCHist.vnet_1::samples         9304                       # delay histogram for vnet_1 (Unspecified)
board.cache_hierarchy.ruby_system.delayVCHist.vnet_1::mean     0.713457                       # delay histogram for vnet_1 (Unspecified)
board.cache_hierarchy.ruby_system.delayVCHist.vnet_1::stdev     2.817538                       # delay histogram for vnet_1 (Unspecified)
board.cache_hierarchy.ruby_system.delayVCHist.vnet_1 |        8821     94.81%     94.81% |         399      4.29%     99.10% |          52      0.56%     99.66% |          19      0.20%     99.86% |          12      0.13%     99.99% |           1      0.01%    100.00% |           0      0.00%    100.00% |           0      0.00%    100.00% |           0      0.00%    100.00% |           0      0.00%    100.00% # delay histogram for vnet_1 (Unspecified)
board.cache_hierarchy.ruby_system.delayVCHist.vnet_1::total         9304                       # delay histogram for vnet_1 (Unspecified)
board.cache_hierarchy.ruby_system.delayVCHist.vnet_2::bucket_size            1                       # delay histogram for vnet_2 (Unspecified)
board.cache_hierarchy.ruby_system.delayVCHist.vnet_2::max_bucket            9                       # delay histogram for vnet_2 (Unspecified)
board.cache_hierarchy.ruby_system.delayVCHist.vnet_2::samples         1104                       # delay histogram for vnet_2 (Unspecified)
board.cache_hierarchy.ruby_system.delayVCHist.vnet_2 |        1104    100.00%    100.00% |           0      0.00%    100.00% |           0      0.00%    100.00% |           0      0.00%    100.00% |           0      0.00%    100.00% |           0      0.00%    100.00% |           0      0.00%    100.00% |           0      0.00%    100.00% |           0      0.00%    100.00% |           0      0.00%    100.00% # delay histogram for vnet_2 (Unspecified)
board.cache_hierarchy.ruby_system.delayVCHist.vnet_2::total         1104                       # delay histogram for vnet_2 (Unspecified)
board.cache_hierarchy.ruby_system.Directory_Controller.Fetch         1103      0.00%      0.00% (Unspecified)
board.cache_hierarchy.ruby_system.Directory_Controller.Memory_Data         1103      0.00%      0.00% (Unspecified)
board.cache_hierarchy.ruby_system.Directory_Controller.I.Fetch         1103      0.00%      0.00% (Unspecified)
board.cache_hierarchy.ruby_system.Directory_Controller.IM.Memory_Data         1103      0.00%      0.00% (Unspecified)
board.cache_hierarchy.ruby_system.L1Cache_Controller.Load |       13399      3.50%      3.50% |       23118      6.04%      9.54% |       23076      6.03%     15.57% |       23076      6.03%     21.60% |       23075      6.03%     27.63% |       23091      6.03%     33.67% |       23076      6.03%     39.70% |       23075      6.03%     45.73% |       23077      6.03%     51.76% |       23093      6.03%     57.79% |       23077      6.03%     63.82% |       23076      6.03%     69.85% |       23070      6.03%     75.88% |       23070      6.03%     81.91% |       23078      6.03%     87.94% |       23078      6.03%     93.97% |       23077      6.03%    100.00% (Unspecified)
board.cache_hierarchy.ruby_system.L1Cache_Controller.Load::total       382682                       (Unspecified)
board.cache_hierarchy.ruby_system.L1Cache_Controller.Ifetch |       20797      4.86%      4.86% |       25457      5.95%     10.82% |       25484      5.96%     16.77% |       25520      5.97%     22.74% |       25417      5.94%     28.69% |       25424      5.94%     34.63% |       25413      5.94%     40.57% |       25413      5.94%     46.52% |       25411      5.94%     52.46% |       25430      5.95%     58.40% |       25416      5.94%     64.35% |       25413      5.94%     70.29% |       25407      5.94%     76.23% |       25408      5.94%     82.17% |       25415      5.94%     88.11% |       25418      5.94%     94.06% |       25414      5.94%    100.00% (Unspecified)
board.cache_hierarchy.ruby_system.L1Cache_Controller.Ifetch::total       427657                       (Unspecified)
board.cache_hierarchy.ruby_system.L1Cache_Controller.Store |       22865      7.80%      7.80% |       17137      5.84%     13.64% |       17134      5.84%     19.49% |       17137      5.84%     25.33% |       16842      5.74%     31.07% |       16842      5.74%     36.82% |       16842      5.74%     42.56% |       16842      5.74%     48.31% |       16842      5.74%     54.05% |       16842      5.74%     59.79% |       16842      5.74%     65.54% |       16842      5.74%     71.28% |       16842      5.74%     77.02% |       16842      5.74%     82.77% |       16842      5.74%     88.51% |       16842      5.74%     94.26% |       16842      5.74%    100.00% (Unspecified)
board.cache_hierarchy.ruby_system.L1Cache_Controller.Store::total       293219                       (Unspecified)
board.cache_hierarchy.ruby_system.L1Cache_Controller.Inv |          93     37.20%     37.20% |          15      6.00%     43.20% |           7      2.80%     46.00% |          14      5.60%     51.60% |           5      2.00%     53.60% |          11      4.40%     58.00% |           9      3.60%     61.60% |          10      4.00%     65.60% |          10      4.00%     69.60% |          12      4.80%     74.40% |          12      4.80%     79.20% |          12      4.80%     84.00% |          12      4.80%     88.80% |          10      4.00%     92.80% |           9      3.60%     96.40% |           8      3.20%     99.60% |           1      0.40%    100.00% (Unspecified)
board.cache_hierarchy.ruby_system.L1Cache_Controller.Inv::total          250                       (Unspecified)
board.cache_hierarchy.ruby_system.L1Cache_Controller.L1_Replacement |         862     99.54%     99.54% |           0      0.00%     99.54% |           0      0.00%     99.54% |           0      0.00%     99.54% |           0      0.00%     99.54% |           2      0.23%     99.77% |           0      0.00%     99.77% |           0      0.00%     99.77% |           0      0.00%     99.77% |           2      0.23%    100.00% |           0      0.00%    100.00% |           0      0.00%    100.00% |           0      0.00%    100.00% |           0      0.00%    100.00% |           0      0.00%    100.00% |           0      0.00%    100.00% |           0      0.00%    100.00% (Unspecified)
board.cache_hierarchy.ruby_system.L1Cache_Controller.L1_Replacement::total          866                       (Unspecified)
board.cache_hierarchy.ruby_system.L1Cache_Controller.Fwd_GETX |          41     18.47%     18.47% |          15      6.76%     25.23% |           3      1.35%     26.58% |          13      5.86%     32.43% |           2      0.90%     33.33% |          13      5.86%     39.19% |          13      5.86%     45.05% |          13      5.86%     50.90% |          13      5.86%     56.76% |          13      5.86%     62.61% |          13      5.86%     68.47% |          13      5.86%     74.32% |          13      5.86%     80.18% |          14      6.31%     86.49% |          14      6.31%     92.79% |          14      6.31%     99.10% |           2      0.90%    100.00% (Unspecified)
board.cache_hierarchy.ruby_system.L1Cache_Controller.Fwd_GETX::total          222                       (Unspecified)
board.cache_hierarchy.ruby_system.L1Cache_Controller.Fwd_GETS |         416     65.82%     65.82% |          23      3.64%     69.46% |          11      1.74%     71.20% |          17      2.69%     73.89% |          10      1.58%     75.47% |          14      2.22%     77.69% |          15      2.37%     80.06% |          14      2.22%     82.28% |          14      2.22%     84.49% |          14      2.22%     86.71% |          14      2.22%     88.92% |          14      2.22%     91.14% |          14      2.22%     93.35% |          13      2.06%     95.41% |          12      1.90%     97.31% |          12      1.90%     99.21% |           5      0.79%    100.00% (Unspecified)
board.cache_hierarchy.ruby_system.L1Cache_Controller.Fwd_GETS::total          632                       (Unspecified)
board.cache_hierarchy.ruby_system.L1Cache_Controller.Data |           0      0.00%      0.00% |           0      0.00%      0.00% |           0      0.00%      0.00% |           1    100.00%    100.00% |           0      0.00%    100.00% |           0      0.00%    100.00% |           0      0.00%    100.00% |           0      0.00%    100.00% |           0      0.00%    100.00% |           0      0.00%    100.00% |           0      0.00%    100.00% |           0      0.00%    100.00% |           0      0.00%    100.00% |           0      0.00%    100.00% |           0      0.00%    100.00% |           0      0.00%    100.00% |           0      0.00%    100.00% (Unspecified)
board.cache_hierarchy.ruby_system.L1Cache_Controller.Data::total            1                       (Unspecified)
board.cache_hierarchy.ruby_system.L1Cache_Controller.Data_Exclusive |          55      2.85%      2.85% |         140      7.26%     10.11% |         132      6.84%     16.95% |         132      6.84%     23.79% |         133      6.89%     30.69% |         132      6.84%     37.53% |         133      6.89%     44.43% |         132      6.84%     51.27% |         132      6.84%     58.11% |         132      6.84%     64.96% |         132      6.84%     71.80% |         132      6.84%     78.64% |         132      6.84%     85.48% |         126      6.53%     92.02% |          76      3.94%     95.96% |          37      1.92%     97.87% |          41      2.13%    100.00% (Unspecified)
board.cache_hierarchy.ruby_system.L1Cache_Controller.Data_Exclusive::total         1929                       (Unspecified)
board.cache_hierarchy.ruby_system.L1Cache_Controller.DataS_fromL1 |          81     12.82%     12.82% |          21      3.32%     16.14% |          21      3.32%     19.46% |          17      2.69%     22.15% |          19      3.01%     25.16% |          21      3.32%     28.48% |          18      2.85%     31.33% |          19      3.01%     34.34% |          19      3.01%     37.34% |          18      2.85%     40.19% |          19      3.01%     43.20% |          19      3.01%     46.20% |          18      2.85%     49.05% |          23      3.64%     52.69% |          74     11.71%     64.40% |         114     18.04%     82.44% |         111     17.56%    100.00% (Unspecified)
board.cache_hierarchy.ruby_system.L1Cache_Controller.DataS_fromL1::total          632                       (Unspecified)
board.cache_hierarchy.ruby_system.L1Cache_Controller.Data_all_Acks |         772     18.48%     18.48% |         250      5.99%     24.47% |         255      6.10%     30.57% |         261      6.25%     36.82% |         199      4.76%     41.58% |         206      4.93%     46.52% |         202      4.84%     51.35% |         203      4.86%     56.21% |         202      4.84%     61.05% |         210      5.03%     66.08% |         202      4.84%     70.91% |         202      4.84%     75.75% |         203      4.86%     80.61% |         204      4.88%     85.49% |         203      4.86%     90.35% |         202      4.84%     95.19% |         201      4.81%    100.00% (Unspecified)
board.cache_hierarchy.ruby_system.L1Cache_Controller.Data_all_Acks::total         4177                       (Unspecified)
board.cache_hierarchy.ruby_system.L1Cache_Controller.Ack |          39     15.66%     15.66% |          11      4.42%     20.08% |          12      4.82%     24.90% |          12      4.82%     29.72% |          13      5.22%     34.94% |          12      4.82%     39.76% |          14      5.62%     45.38% |          14      5.62%     51.00% |          14      5.62%     56.63% |          13      5.22%     61.85% |          14      5.62%     67.47% |          14      5.62%     73.09% |          13      5.22%     78.31% |          13      5.22%     83.53% |          13      5.22%     88.76% |          14      5.62%     94.38% |          14      5.62%    100.00% (Unspecified)
board.cache_hierarchy.ruby_system.L1Cache_Controller.Ack::total          249                       (Unspecified)
board.cache_hierarchy.ruby_system.L1Cache_Controller.Ack_all |          34     14.85%     14.85% |          10      4.37%     19.21% |          10      4.37%     23.58% |          11      4.80%     28.38% |          13      5.68%     34.06% |          12      5.24%     39.30% |          13      5.68%     44.98% |          13      5.68%     50.66% |          13      5.68%     56.33% |          12      5.24%     61.57% |          13      5.68%     67.25% |          13      5.68%     72.93% |          12      5.24%     78.17% |          12      5.24%     83.41% |          12      5.24%     88.65% |          13      5.68%     94.32% |          13      5.68%    100.00% (Unspecified)
board.cache_hierarchy.ruby_system.L1Cache_Controller.Ack_all::total          229                       (Unspecified)
board.cache_hierarchy.ruby_system.L1Cache_Controller.WB_Ack |         352    100.00%    100.00% |           0      0.00%    100.00% |           0      0.00%    100.00% |           0      0.00%    100.00% |           0      0.00%    100.00% |           0      0.00%    100.00% |           0      0.00%    100.00% |           0      0.00%    100.00% |           0      0.00%    100.00% |           0      0.00%    100.00% |           0      0.00%    100.00% |           0      0.00%    100.00% |           0      0.00%    100.00% |           0      0.00%    100.00% |           0      0.00%    100.00% |           0      0.00%    100.00% |           0      0.00%    100.00% (Unspecified)
board.cache_hierarchy.ruby_system.L1Cache_Controller.WB_Ack::total          352                       (Unspecified)
board.cache_hierarchy.ruby_system.L1Cache_Controller.NP.Load |         127      4.64%      4.64% |         157      5.73%     10.37% |         158      5.77%     16.14% |         159      5.81%     21.95% |         164      5.99%     27.94% |         165      6.03%     33.97% |         164      5.99%     39.96% |         164      5.99%     45.95% |         164      5.99%     51.94% |         165      6.03%     57.96% |         164      5.99%     63.95% |         164      5.99%     69.94% |         164      5.99%     75.93% |         164      5.99%     81.92% |         165      6.03%     87.95% |         165      6.03%     93.97% |         165      6.03%    100.00% (Unspecified)
board.cache_hierarchy.ruby_system.L1Cache_Controller.NP.Load::total         2738                       (Unspecified)
board.cache_hierarchy.ruby_system.L1Cache_Controller.NP.Ifetch |         340     11.33%     11.33% |         186      6.20%     17.53% |         186      6.20%     23.73% |         186      6.20%     29.93% |         160      5.33%     35.27% |         165      5.50%     40.77% |         161      5.37%     46.13% |         162      5.40%     51.53% |         161      5.37%     56.90% |         166      5.53%     62.43% |         161      5.37%     67.80% |         161      5.37%     73.17% |         161      5.37%     78.53% |         161      5.37%     83.90% |         161      5.37%     89.27% |         161      5.37%     94.63% |         161      5.37%    100.00% (Unspecified)
board.cache_hierarchy.ruby_system.L1Cache_Controller.NP.Ifetch::total         3000                       (Unspecified)
board.cache_hierarchy.ruby_system.L1Cache_Controller.NP.Store |         395     42.66%     42.66% |          61      6.59%     49.24% |          61      6.59%     55.83% |          61      6.59%     62.42% |          27      2.92%     65.33% |          27      2.92%     68.25% |          27      2.92%     71.17% |          27      2.92%     74.08% |          27      2.92%     77.00% |          27      2.92%     79.91% |          27      2.92%     82.83% |          27      2.92%     85.75% |          27      2.92%     88.66% |          27      2.92%     91.58% |          26      2.81%     94.38% |          26      2.81%     97.19% |          26      2.81%    100.00% (Unspecified)
board.cache_hierarchy.ruby_system.L1Cache_Controller.NP.Store::total          926                       (Unspecified)
board.cache_hierarchy.ruby_system.L1Cache_Controller.NP.Inv |          10    100.00%    100.00% |           0      0.00%    100.00% |           0      0.00%    100.00% |           0      0.00%    100.00% |           0      0.00%    100.00% |           0      0.00%    100.00% |           0      0.00%    100.00% |           0      0.00%    100.00% |           0      0.00%    100.00% |           0      0.00%    100.00% |           0      0.00%    100.00% |           0      0.00%    100.00% |           0      0.00%    100.00% |           0      0.00%    100.00% |           0      0.00%    100.00% |           0      0.00%    100.00% |           0      0.00%    100.00% (Unspecified)
board.cache_hierarchy.ruby_system.L1Cache_Controller.NP.Inv::total           10                       (Unspecified)
board.cache_hierarchy.ruby_system.L1Cache_Controller.I.Load |          40     66.67%     66.67% |           5      8.33%     75.00% |           2      3.33%     78.33% |           4      6.67%     85.00% |           0      0.00%     85.00% |           1      1.67%     86.67% |           1      1.67%     88.33% |           1      1.67%     90.00% |           1      1.67%     91.67% |           1      1.67%     93.33% |           1      1.67%     95.00% |           1      1.67%     96.67% |           0      0.00%     96.67% |           0      0.00%     96.67% |           0      0.00%     96.67% |           1      1.67%     98.33% |           1      1.67%    100.00% (Unspecified)
board.cache_hierarchy.ruby_system.L1Cache_Controller.I.Load::total           60                       (Unspecified)
board.cache_hierarchy.ruby_system.L1Cache_Controller.I.Store |           5     38.46%     38.46% |           1      7.69%     46.15% |           1      7.69%     53.85% |           1      7.69%     61.54% |           0      0.00%     61.54% |           1      7.69%     69.23% |           0      0.00%     69.23% |           0      0.00%     69.23% |           0      0.00%     69.23% |           1      7.69%     76.92% |           0      0.00%     76.92% |           0      0.00%     76.92% |           1      7.69%     84.62% |           1      7.69%     92.31% |           1      7.69%    100.00% |           0      0.00%    100.00% |           0      0.00%    100.00% (Unspecified)
board.cache_hierarchy.ruby_system.L1Cache_Controller.I.Store::total           13                       (Unspecified)
board.cache_hierarchy.ruby_system.L1Cache_Controller.I.L1_Replacement |          57    100.00%    100.00% |           0      0.00%    100.00% |           0      0.00%    100.00% |           0      0.00%    100.00% |           0      0.00%    100.00% |           0      0.00%    100.00% |           0      0.00%    100.00% |           0      0.00%    100.00% |           0      0.00%    100.00% |           0      0.00%    100.00% |           0      0.00%    100.00% |           0      0.00%    100.00% |           0      0.00%    100.00% |           0      0.00%    100.00% |           0      0.00%    100.00% |           0      0.00%    100.00% |           0      0.00%    100.00% (Unspecified)
board.cache_hierarchy.ruby_system.L1Cache_Controller.I.L1_Replacement::total           57                       (Unspecified)
board.cache_hierarchy.ruby_system.L1Cache_Controller.S.Load |         480      8.80%      8.80% |          74      1.36%     10.16% |          91      1.67%     11.83% |          84      1.54%     13.37% |          76      1.39%     14.76% |          80      1.47%     16.23% |          71      1.30%     17.53% |          73      1.34%     18.87% |          76      1.39%     20.26% |          81      1.49%     21.75% |          74      1.36%     23.10% |          73      1.34%     24.44% |          75      1.38%     25.82% |         165      3.03%     28.84% |         924     16.94%     45.78% |        1509     27.67%     73.45% |        1448     26.55%    100.00% (Unspecified)
board.cache_hierarchy.ruby_system.L1Cache_Controller.S.Load::total         5454                       (Unspecified)
board.cache_hierarchy.ruby_system.L1Cache_Controller.S.Ifetch |       20457      4.82%      4.82% |       25271      5.95%     10.77% |       25298      5.96%     16.73% |       25334      5.97%     22.69% |       25257      5.95%     28.64% |       25259      5.95%     34.59% |       25252      5.95%     40.53% |       25251      5.95%     46.48% |       25250      5.95%     52.43% |       25264      5.95%     58.37% |       25255      5.95%     64.32% |       25252      5.95%     70.27% |       25246      5.95%     76.21% |       25247      5.95%     82.16% |       25254      5.95%     88.11% |       25257      5.95%     94.05% |       25253      5.95%    100.00% (Unspecified)
board.cache_hierarchy.ruby_system.L1Cache_Controller.S.Ifetch::total       424657                       (Unspecified)
board.cache_hierarchy.ruby_system.L1Cache_Controller.S.Store |          34     14.85%     14.85% |          11      4.80%     19.65% |          10      4.37%     24.02% |          10      4.37%     28.38% |          13      5.68%     34.06% |          12      5.24%     39.30% |          13      5.68%     44.98% |          13      5.68%     50.66% |          13      5.68%     56.33% |          12      5.24%     61.57% |          13      5.68%     67.25% |          13      5.68%     72.93% |          12      5.24%     78.17% |          12      5.24%     83.41% |          12      5.24%     88.65% |          13      5.68%     94.32% |          13      5.68%    100.00% (Unspecified)
board.cache_hierarchy.ruby_system.L1Cache_Controller.S.Store::total          229                       (Unspecified)
board.cache_hierarchy.ruby_system.L1Cache_Controller.S.Inv |          83     34.73%     34.73% |          14      5.86%     40.59% |           7      2.93%     43.51% |          14      5.86%     49.37% |           5      2.09%     51.46% |          11      4.60%     56.07% |           9      3.77%     59.83% |          10      4.18%     64.02% |          10      4.18%     68.20% |          12      5.02%     73.22% |          12      5.02%     78.24% |          12      5.02%     83.26% |          12      5.02%     88.28% |          10      4.18%     92.47% |           9      3.77%     96.23% |           8      3.35%     99.58% |           1      0.42%    100.00% (Unspecified)
board.cache_hierarchy.ruby_system.L1Cache_Controller.S.Inv::total          239                       (Unspecified)
board.cache_hierarchy.ruby_system.L1Cache_Controller.S.L1_Replacement |         453     99.12%     99.12% |           0      0.00%     99.12% |           0      0.00%     99.12% |           0      0.00%     99.12% |           0      0.00%     99.12% |           2      0.44%     99.56% |           0      0.00%     99.56% |           0      0.00%     99.56% |           0      0.00%     99.56% |           2      0.44%    100.00% |           0      0.00%    100.00% |           0      0.00%    100.00% |           0      0.00%    100.00% |           0      0.00%    100.00% |           0      0.00%    100.00% |           0      0.00%    100.00% |           0      0.00%    100.00% (Unspecified)
board.cache_hierarchy.ruby_system.L1Cache_Controller.S.L1_Replacement::total          457                       (Unspecified)
board.cache_hierarchy.ruby_system.L1Cache_Controller.E.Load |        1377      4.87%      4.87% |        1919      6.78%     11.65% |        1916      6.77%     18.43% |        1916      6.77%     25.20% |        1916      6.77%     31.97% |        1916      6.77%     38.75% |        1920      6.79%     45.53% |        1916      6.77%     52.31% |        1916      6.77%     59.08% |        1916      6.77%     65.85% |        1916      6.77%     72.63% |        1916      6.77%     79.40% |        1916      6.77%     86.17% |        1826      6.46%     92.63% |        1065      3.76%     96.39% |         480      1.70%     98.09% |         540      1.91%    100.00% (Unspecified)
board.cache_hierarchy.ruby_system.L1Cache_Controller.E.Load::total        28287                       (Unspecified)
board.cache_hierarchy.ruby_system.L1Cache_Controller.E.Store |          16     84.21%     84.21% |           0      0.00%     84.21% |           0      0.00%     84.21% |           0      0.00%     84.21% |           0      0.00%     84.21% |           0      0.00%     84.21% |           0      0.00%     84.21% |           0      0.00%     84.21% |           0      0.00%     84.21% |           0      0.00%     84.21% |           0      0.00%     84.21% |           0      0.00%     84.21% |           0      0.00%     84.21% |           0      0.00%     84.21% |           1      5.26%     89.47% |           1      5.26%     94.74% |           1      5.26%    100.00% (Unspecified)
board.cache_hierarchy.ruby_system.L1Cache_Controller.E.Store::total           19                       (Unspecified)
board.cache_hierarchy.ruby_system.L1Cache_Controller.E.L1_Replacement |          11    100.00%    100.00% |           0      0.00%    100.00% |           0      0.00%    100.00% |           0      0.00%    100.00% |           0      0.00%    100.00% |           0      0.00%    100.00% |           0      0.00%    100.00% |           0      0.00%    100.00% |           0      0.00%    100.00% |           0      0.00%    100.00% |           0      0.00%    100.00% |           0      0.00%    100.00% |           0      0.00%    100.00% |           0      0.00%    100.00% |           0      0.00%    100.00% |           0      0.00%    100.00% |           0      0.00%    100.00% (Unspecified)
board.cache_hierarchy.ruby_system.L1Cache_Controller.E.L1_Replacement::total           11                       (Unspecified)
board.cache_hierarchy.ruby_system.L1Cache_Controller.E.Fwd_GETS |           6     13.64%     13.64% |           9     20.45%     34.09% |           2      4.55%     38.64% |           2      4.55%     43.18% |           3      6.82%     50.00% |           2      4.55%     54.55% |           3      6.82%     61.36% |           2      4.55%     65.91% |           2      4.55%     70.45% |           2      4.55%     75.00% |           2      4.55%     79.55% |           2      4.55%     84.09% |           2      4.55%     88.64% |           2      4.55%     93.18% |           1      2.27%     95.45% |           1      2.27%     97.73% |           1      2.27%    100.00% (Unspecified)
board.cache_hierarchy.ruby_system.L1Cache_Controller.E.Fwd_GETS::total           44                       (Unspecified)
board.cache_hierarchy.ruby_system.L1Cache_Controller.M.Load |       11375      3.29%      3.29% |       20963      6.06%      9.34% |       20909      6.04%     15.38% |       20913      6.04%     21.42% |       20919      6.04%     27.47% |       20929      6.05%     33.51% |       20920      6.04%     39.56% |       20921      6.04%     45.60% |       20920      6.04%     51.65% |       20930      6.05%     57.69% |       20922      6.04%     63.74% |       20922      6.04%     69.78% |       20915      6.04%     75.82% |       20915      6.04%     81.87% |       20924      6.04%     87.91% |       20923      6.04%     93.96% |       20923      6.04%    100.00% (Unspecified)
board.cache_hierarchy.ruby_system.L1Cache_Controller.M.Load::total       346143                       (Unspecified)
board.cache_hierarchy.ruby_system.L1Cache_Controller.M.Store |       22415      7.68%      7.68% |       17064      5.84%     13.52% |       17062      5.84%     19.36% |       17065      5.84%     25.20% |       16802      5.75%     30.96% |       16802      5.75%     36.71% |       16802      5.75%     42.47% |       16802      5.75%     48.22% |       16802      5.75%     53.97% |       16802      5.75%     59.73% |       16802      5.75%     65.48% |       16802      5.75%     71.23% |       16802      5.75%     76.99% |       16802      5.75%     82.74% |       16802      5.75%     88.49% |       16802      5.75%     94.25% |       16802      5.75%    100.00% (Unspecified)
board.cache_hierarchy.ruby_system.L1Cache_Controller.M.Store::total       292032                       (Unspecified)
board.cache_hierarchy.ruby_system.L1Cache_Controller.M.L1_Replacement |         341    100.00%    100.00% |           0      0.00%    100.00% |           0      0.00%    100.00% |           0      0.00%    100.00% |           0      0.00%    100.00% |           0      0.00%    100.00% |           0      0.00%    100.00% |           0      0.00%    100.00% |           0      0.00%    100.00% |           0      0.00%    100.00% |           0      0.00%    100.00% |           0      0.00%    100.00% |           0      0.00%    100.00% |           0      0.00%    100.00% |           0      0.00%    100.00% |           0      0.00%    100.00% |           0      0.00%    100.00% (Unspecified)
board.cache_hierarchy.ruby_system.L1Cache_Controller.M.L1_Replacement::total          341                       (Unspecified)
board.cache_hierarchy.ruby_system.L1Cache_Controller.M.Fwd_GETX |          41     18.47%     18.47% |          15      6.76%     25.23% |           3      1.35%     26.58% |          13      5.86%     32.43% |           2      0.90%     33.33% |          13      5.86%     39.19% |          13      5.86%     45.05% |          13      5.86%     50.90% |          13      5.86%     56.76% |          13      5.86%     62.61% |          13      5.86%     68.47% |          13      5.86%     74.32% |          13      5.86%     80.18% |          14      6.31%     86.49% |          14      6.31%     92.79% |          14      6.31%     99.10% |           2      0.90%    100.00% (Unspecified)
board.cache_hierarchy.ruby_system.L1Cache_Controller.M.Fwd_GETX::total          222                       (Unspecified)
board.cache_hierarchy.ruby_system.L1Cache_Controller.M.Fwd_GETS |         410     69.73%     69.73% |          14      2.38%     72.11% |           9      1.53%     73.64% |          15      2.55%     76.19% |           7      1.19%     77.38% |          12      2.04%     79.42% |          12      2.04%     81.46% |          12      2.04%     83.50% |          12      2.04%     85.54% |          12      2.04%     87.59% |          12      2.04%     89.63% |          12      2.04%     91.67% |          12      2.04%     93.71% |          11      1.87%     95.58% |          11      1.87%     97.45% |          11      1.87%     99.32% |           4      0.68%    100.00% (Unspecified)
board.cache_hierarchy.ruby_system.L1Cache_Controller.M.Fwd_GETS::total          588                       (Unspecified)
board.cache_hierarchy.ruby_system.L1Cache_Controller.IS.Data_Exclusive |          55      2.85%      2.85% |         140      7.26%     10.11% |         132      6.84%     16.95% |         132      6.84%     23.79% |         133      6.89%     30.69% |         132      6.84%     37.53% |         133      6.89%     44.43% |         132      6.84%     51.27% |         132      6.84%     58.11% |         132      6.84%     64.96% |         132      6.84%     71.80% |         132      6.84%     78.64% |         132      6.84%     85.48% |         126      6.53%     92.02% |          76      3.94%     95.96% |          37      1.92%     97.87% |          41      2.13%    100.00% (Unspecified)
board.cache_hierarchy.ruby_system.L1Cache_Controller.IS.Data_Exclusive::total         1929                       (Unspecified)
board.cache_hierarchy.ruby_system.L1Cache_Controller.IS.DataS_fromL1 |          81     12.82%     12.82% |          21      3.32%     16.14% |          21      3.32%     19.46% |          17      2.69%     22.15% |          19      3.01%     25.16% |          21      3.32%     28.48% |          18      2.85%     31.33% |          19      3.01%     34.34% |          19      3.01%     37.34% |          18      2.85%     40.19% |          19      3.01%     43.20% |          19      3.01%     46.20% |          18      2.85%     49.05% |          23      3.64%     52.69% |          74     11.71%     64.40% |         114     18.04%     82.44% |         111     17.56%    100.00% (Unspecified)
board.cache_hierarchy.ruby_system.L1Cache_Controller.IS.DataS_fromL1::total          632                       (Unspecified)
board.cache_hierarchy.ruby_system.L1Cache_Controller.IS.Data_all_Acks |         372     11.49%     11.49% |         187      5.78%     17.26% |         193      5.96%     23.22% |         200      6.18%     29.40% |         172      5.31%     34.71% |         178      5.50%     40.21% |         175      5.40%     45.61% |         176      5.44%     51.05% |         175      5.40%     56.45% |         182      5.62%     62.08% |         175      5.40%     67.48% |         175      5.40%     72.88% |         175      5.40%     78.29% |         176      5.44%     83.72% |         176      5.44%     89.16% |         176      5.44%     94.60% |         175      5.40%    100.00% (Unspecified)
board.cache_hierarchy.ruby_system.L1Cache_Controller.IS.Data_all_Acks::total         3238                       (Unspecified)
board.cache_hierarchy.ruby_system.L1Cache_Controller.IM.Data |           0      0.00%      0.00% |           0      0.00%      0.00% |           0      0.00%      0.00% |           1    100.00%    100.00% |           0      0.00%    100.00% |           0      0.00%    100.00% |           0      0.00%    100.00% |           0      0.00%    100.00% |           0      0.00%    100.00% |           0      0.00%    100.00% |           0      0.00%    100.00% |           0      0.00%    100.00% |           0      0.00%    100.00% |           0      0.00%    100.00% |           0      0.00%    100.00% |           0      0.00%    100.00% |           0      0.00%    100.00% (Unspecified)
board.cache_hierarchy.ruby_system.L1Cache_Controller.IM.Data::total            1                       (Unspecified)
board.cache_hierarchy.ruby_system.L1Cache_Controller.IM.Data_all_Acks |         400     42.60%     42.60% |          63      6.71%     49.31% |          62      6.60%     55.91% |          61      6.50%     62.41% |          27      2.88%     65.28% |          28      2.98%     68.26% |          27      2.88%     71.14% |          27      2.88%     74.01% |          27      2.88%     76.89% |          28      2.98%     79.87% |          27      2.88%     82.75% |          27      2.88%     85.62% |          28      2.98%     88.60% |          28      2.98%     91.59% |          27      2.88%     94.46% |          26      2.77%     97.23% |          26      2.77%    100.00% (Unspecified)
board.cache_hierarchy.ruby_system.L1Cache_Controller.IM.Data_all_Acks::total          939                       (Unspecified)
board.cache_hierarchy.ruby_system.L1Cache_Controller.SM.Inv |           0      0.00%      0.00% |           1    100.00%    100.00% |           0      0.00%    100.00% |           0      0.00%    100.00% |           0      0.00%    100.00% |           0      0.00%    100.00% |           0      0.00%    100.00% |           0      0.00%    100.00% |           0      0.00%    100.00% |           0      0.00%    100.00% |           0      0.00%    100.00% |           0      0.00%    100.00% |           0      0.00%    100.00% |           0      0.00%    100.00% |           0      0.00%    100.00% |           0      0.00%    100.00% |           0      0.00%    100.00% (Unspecified)
board.cache_hierarchy.ruby_system.L1Cache_Controller.SM.Inv::total            1                       (Unspecified)
board.cache_hierarchy.ruby_system.L1Cache_Controller.SM.Ack |          39     15.66%     15.66% |          11      4.42%     20.08% |          12      4.82%     24.90% |          12      4.82%     29.72% |          13      5.22%     34.94% |          12      4.82%     39.76% |          14      5.62%     45.38% |          14      5.62%     51.00% |          14      5.62%     56.63% |          13      5.22%     61.85% |          14      5.62%     67.47% |          14      5.62%     73.09% |          13      5.22%     78.31% |          13      5.22%     83.53% |          13      5.22%     88.76% |          14      5.62%     94.38% |          14      5.62%    100.00% (Unspecified)
board.cache_hierarchy.ruby_system.L1Cache_Controller.SM.Ack::total          249                       (Unspecified)
board.cache_hierarchy.ruby_system.L1Cache_Controller.SM.Ack_all |          34     14.85%     14.85% |          10      4.37%     19.21% |          10      4.37%     23.58% |          11      4.80%     28.38% |          13      5.68%     34.06% |          12      5.24%     39.30% |          13      5.68%     44.98% |          13      5.68%     50.66% |          13      5.68%     56.33% |          12      5.24%     61.57% |          13      5.68%     67.25% |          13      5.68%     72.93% |          12      5.24%     78.17% |          12      5.24%     83.41% |          12      5.24%     88.65% |          13      5.68%     94.32% |          13      5.68%    100.00% (Unspecified)
board.cache_hierarchy.ruby_system.L1Cache_Controller.SM.Ack_all::total          229                       (Unspecified)
board.cache_hierarchy.ruby_system.L1Cache_Controller.M_I.WB_Ack |         352    100.00%    100.00% |           0      0.00%    100.00% |           0      0.00%    100.00% |           0      0.00%    100.00% |           0      0.00%    100.00% |           0      0.00%    100.00% |           0      0.00%    100.00% |           0      0.00%    100.00% |           0      0.00%    100.00% |           0      0.00%    100.00% |           0      0.00%    100.00% |           0      0.00%    100.00% |           0      0.00%    100.00% |           0      0.00%    100.00% |           0      0.00%    100.00% |           0      0.00%    100.00% |           0      0.00%    100.00% (Unspecified)
board.cache_hierarchy.ruby_system.L1Cache_Controller.M_I.WB_Ack::total          352                       (Unspecified)
board.cache_hierarchy.ruby_system.L2Cache_Controller.L1_GET_INSTR |         131      4.37%      4.37% |         174      5.80%     10.16% |         233      7.76%     17.93% |         258      8.60%     26.52% |         231      7.70%     34.22% |         191      6.36%     40.59% |         212      7.06%     47.65% |         150      5.00%     52.65% |         198      6.60%     59.25% |         199      6.63%     65.88% |         186      6.20%     72.08% |         193      6.43%     78.51% |         199      6.63%     85.14% |         188      6.26%     91.40% |         151      5.03%     96.43% |         107      3.57%    100.00% (Unspecified)
board.cache_hierarchy.ruby_system.L2Cache_Controller.L1_GET_INSTR::total         3001                       (Unspecified)
board.cache_hierarchy.ruby_system.L2Cache_Controller.L1_GETS |         148      5.29%      5.29% |         214      7.65%     12.93% |         198      7.07%     20.01% |         203      7.25%     27.26% |         183      6.54%     33.80% |         184      6.57%     40.37% |         171      6.11%     46.48% |         140      5.00%     51.48% |         149      5.32%     56.81% |         187      6.68%     63.49% |         189      6.75%     70.24% |         134      4.79%     75.03% |         166      5.93%     80.96% |         165      5.89%     86.85% |         187      6.68%     93.53% |         181      6.47%    100.00% (Unspecified)
board.cache_hierarchy.ruby_system.L2Cache_Controller.L1_GETS::total         2799                       (Unspecified)
board.cache_hierarchy.ruby_system.L2Cache_Controller.L1_GETX |          46      4.89%      4.89% |          53      5.64%     10.53% |          50      5.32%     15.85% |          51      5.43%     21.28% |          89      9.47%     30.74% |          95     10.11%     40.85% |          76      8.09%     48.94% |          79      8.40%     57.34% |          79      8.40%     65.74% |          46      4.89%     70.64% |          49      5.21%     75.85% |          31      3.30%     79.15% |          63      6.70%     85.85% |          62      6.60%     92.45% |          42      4.47%     96.91% |          29      3.09%    100.00% (Unspecified)
board.cache_hierarchy.ruby_system.L2Cache_Controller.L1_GETX::total          940                       (Unspecified)
board.cache_hierarchy.ruby_system.L2Cache_Controller.L1_UPGRADE |           1      0.44%      0.44% |          63     27.51%     27.95% |          31     13.54%     41.48% |          15      6.55%     48.03% |          15      6.55%     54.59% |          33     14.41%     69.00% |           3      1.31%     70.31% |           5      2.18%     72.49% |           2      0.87%     73.36% |           2      0.87%     74.24% |          23     10.04%     84.28% |           0      0.00%     84.28% |          15      6.55%     90.83% |           3      1.31%     92.14% |          17      7.42%     99.56% |           1      0.44%    100.00% (Unspecified)
board.cache_hierarchy.ruby_system.L2Cache_Controller.L1_UPGRADE::total          229                       (Unspecified)
board.cache_hierarchy.ruby_system.L2Cache_Controller.L1_PUTX |           8      2.27%      2.27% |          20      5.68%      7.95% |          15      4.26%     12.22% |          31      8.81%     21.02% |          47     13.35%     34.38% |          32      9.09%     43.47% |          30      8.52%     51.99% |          15      4.26%     56.25% |          15      4.26%     60.51% |          14      3.98%     64.49% |          31      8.81%     73.30% |          12      3.41%     76.70% |          29      8.24%     84.94% |          30      8.52%     93.47% |          15      4.26%     97.73% |           8      2.27%    100.00% (Unspecified)
board.cache_hierarchy.ruby_system.L2Cache_Controller.L1_PUTX::total          352                       (Unspecified)
board.cache_hierarchy.ruby_system.L2Cache_Controller.Mem_Data |          56      5.08%      5.08% |          73      6.62%     11.70% |          76      6.89%     18.59% |          77      6.98%     25.57% |          90      8.16%     33.73% |          91      8.25%     41.98% |          70      6.35%     48.32% |          66      5.98%     54.31% |          69      6.26%     60.56% |          72      6.53%     67.09% |          55      4.99%     72.08% |          40      3.63%     75.70% |          61      5.53%     81.23% |          75      6.80%     88.03% |          65      5.89%     93.93% |          67      6.07%    100.00% (Unspecified)
board.cache_hierarchy.ruby_system.L2Cache_Controller.Mem_Data::total         1103                       (Unspecified)
board.cache_hierarchy.ruby_system.L2Cache_Controller.WB_Data |          23      3.91%      3.91% |          95     16.16%     20.07% |          65     11.05%     31.12% |          33      5.61%     36.73% |          31      5.27%     42.01% |          59     10.03%     52.04% |          19      3.23%     55.27% |          21      3.57%     58.84% |          19      3.23%     62.07% |          40      6.80%     68.88% |          39      6.63%     75.51% |          19      3.23%     78.74% |          31      5.27%     84.01% |          33      5.61%     89.63% |          35      5.95%     95.58% |          26      4.42%    100.00% (Unspecified)
board.cache_hierarchy.ruby_system.L2Cache_Controller.WB_Data::total          588                       (Unspecified)
board.cache_hierarchy.ruby_system.L2Cache_Controller.WB_Data_clean |          12     27.27%     27.27% |           0      0.00%     27.27% |           1      2.27%     29.55% |          17     38.64%     68.18% |           1      2.27%     70.45% |           1      2.27%     72.73% |           1      2.27%     75.00% |           0      0.00%     75.00% |           1      2.27%     77.27% |           1      2.27%     79.55% |           2      4.55%     84.09% |           0      0.00%     84.09% |           1      2.27%     86.36% |           1      2.27%     88.64% |           3      6.82%     95.45% |           2      4.55%    100.00% (Unspecified)
board.cache_hierarchy.ruby_system.L2Cache_Controller.WB_Data_clean::total           44                       (Unspecified)
board.cache_hierarchy.ruby_system.L2Cache_Controller.Unblock |          35      5.54%      5.54% |          95     15.03%     20.57% |          66     10.44%     31.01% |          50      7.91%     38.92% |          32      5.06%     43.99% |          60      9.49%     53.48% |          20      3.16%     56.65% |          21      3.32%     59.97% |          20      3.16%     63.13% |          41      6.49%     69.62% |          41      6.49%     76.11% |          19      3.01%     79.11% |          32      5.06%     84.18% |          34      5.38%     89.56% |          38      6.01%     95.57% |          28      4.43%    100.00% (Unspecified)
board.cache_hierarchy.ruby_system.L2Cache_Controller.Unblock::total          632                       (Unspecified)
board.cache_hierarchy.ruby_system.L2Cache_Controller.Exclusive_Unblock |         156      5.04%      5.04% |         232      7.49%     12.53% |         196      6.33%     18.86% |         195      6.30%     25.15% |         240      7.75%     32.90% |         252      8.14%     41.04% |         201      6.49%     47.53% |         201      6.49%     54.02% |         199      6.43%     60.45% |         177      5.72%     66.16% |         191      6.17%     72.33% |         145      4.68%     77.01% |         197      6.36%     83.37% |         182      5.88%     89.25% |         178      5.75%     95.00% |         155      5.00%    100.00% (Unspecified)
board.cache_hierarchy.ruby_system.L2Cache_Controller.Exclusive_Unblock::total         3097                       (Unspecified)
board.cache_hierarchy.ruby_system.L2Cache_Controller.NP.L1_GET_INSTR |          25      6.53%      6.53% |          26      6.79%     13.32% |          28      7.31%     20.63% |          29      7.57%     28.20% |          26      6.79%     34.99% |          25      6.53%     41.51% |          20      5.22%     46.74% |          18      4.70%     51.44% |          20      5.22%     56.66% |          24      6.27%     62.92% |          23      6.01%     68.93% |          22      5.74%     74.67% |          27      7.05%     81.72% |          27      7.05%     88.77% |          21      5.48%     94.26% |          22      5.74%    100.00% (Unspecified)
board.cache_hierarchy.ruby_system.L2Cache_Controller.NP.L1_GET_INSTR::total          383                       (Unspecified)
board.cache_hierarchy.ruby_system.L2Cache_Controller.NP.L1_GETS |           0      0.00%      0.00% |           2      3.17%      3.17% |           0      0.00%      3.17% |           0      0.00%      3.17% |          16     25.40%     28.57% |           1      1.59%     30.16% |           2      3.17%     33.33% |           0      0.00%     33.33% |           1      1.59%     34.92% |          17     26.98%     61.90% |           1      1.59%     63.49% |           2      3.17%     66.67% |           1      1.59%     68.25% |           0      0.00%     68.25% |           3      4.76%     73.02% |          17     26.98%    100.00% (Unspecified)
board.cache_hierarchy.ruby_system.L2Cache_Controller.NP.L1_GETS::total           63                       (Unspecified)
board.cache_hierarchy.ruby_system.L2Cache_Controller.NP.L1_GETX |          31      4.72%      4.72% |          45      6.85%     11.57% |          48      7.31%     18.87% |          48      7.31%     26.18% |          48      7.31%     33.49% |          65      9.89%     43.38% |          48      7.31%     50.68% |          48      7.31%     57.99% |          48      7.31%     65.30% |          31      4.72%     70.02% |          31      4.72%     74.73% |          16      2.44%     77.17% |          33      5.02%     82.19% |          48      7.31%     89.50% |          41      6.24%     95.74% |          28      4.26%    100.00% (Unspecified)
board.cache_hierarchy.ruby_system.L2Cache_Controller.NP.L1_GETX::total          657                       (Unspecified)
board.cache_hierarchy.ruby_system.L2Cache_Controller.SS.L1_GET_INSTR |         106      4.08%      4.08% |         147      5.65%      9.73% |         203      7.81%     17.54% |         229      8.81%     26.35% |         204      7.85%     34.19% |         164      6.31%     40.50% |         190      7.31%     47.81% |         131      5.04%     52.85% |         178      6.85%     59.69% |         175      6.73%     66.42% |         163      6.27%     72.69% |         170      6.54%     79.23% |         170      6.54%     85.77% |         159      6.12%     91.88% |         129      4.96%     96.85% |          82      3.15%    100.00% (Unspecified)
board.cache_hierarchy.ruby_system.L2Cache_Controller.SS.L1_GET_INSTR::total         2600                       (Unspecified)
board.cache_hierarchy.ruby_system.L2Cache_Controller.SS.L1_GETS |           4      1.69%      1.69% |           2      0.84%      2.53% |          17      7.17%      9.70% |          24     10.13%     19.83% |          15      6.33%     26.16% |           0      0.00%     26.16% |          29     12.24%     38.40% |           2      0.84%     39.24% |          11      4.64%     43.88% |          17      7.17%     51.05% |          28     11.81%     62.87% |           1      0.42%     63.29% |          15      6.33%     69.62% |          14      5.91%     75.53% |          30     12.66%     88.19% |          28     11.81%    100.00% (Unspecified)
board.cache_hierarchy.ruby_system.L2Cache_Controller.SS.L1_GETS::total          237                       (Unspecified)
board.cache_hierarchy.ruby_system.L2Cache_Controller.SS.L1_GETX |           0      0.00%      0.00% |           0      0.00%      0.00% |           0      0.00%      0.00% |           0      0.00%      0.00% |           0      0.00%      0.00% |           0      0.00%      0.00% |           0      0.00%      0.00% |           0      0.00%      0.00% |           0      0.00%      0.00% |           0      0.00%      0.00% |           1    100.00%    100.00% |           0      0.00%    100.00% |           0      0.00%    100.00% |           0      0.00%    100.00% |           0      0.00%    100.00% |           0      0.00%    100.00% (Unspecified)
board.cache_hierarchy.ruby_system.L2Cache_Controller.SS.L1_GETX::total            1                       (Unspecified)
board.cache_hierarchy.ruby_system.L2Cache_Controller.SS.L1_UPGRADE |           1      0.44%      0.44% |          63     27.63%     28.07% |          31     13.60%     41.67% |          15      6.58%     48.25% |          15      6.58%     54.82% |          33     14.47%     69.30% |           3      1.32%     70.61% |           5      2.19%     72.81% |           2      0.88%     73.68% |           2      0.88%     74.56% |          22      9.65%     84.21% |           0      0.00%     84.21% |          15      6.58%     90.79% |           3      1.32%     92.11% |          17      7.46%     99.56% |           1      0.44%    100.00% (Unspecified)
board.cache_hierarchy.ruby_system.L2Cache_Controller.SS.L1_UPGRADE::total          228                       (Unspecified)
board.cache_hierarchy.ruby_system.L2Cache_Controller.M.L1_GETS |         109      5.84%      5.84% |         114      6.11%     11.95% |         115      6.16%     18.11% |         129      6.91%     25.03% |         120      6.43%     31.46% |         123      6.59%     38.05% |         120      6.43%     44.48% |         117      6.27%     50.75% |         117      6.27%     57.02% |         112      6.00%     63.02% |         119      6.38%     69.40% |         112      6.00%     75.40% |         118      6.32%     81.73% |         117      6.27%     88.00% |         116      6.22%     94.21% |         108      5.79%    100.00% (Unspecified)
board.cache_hierarchy.ruby_system.L2Cache_Controller.M.L1_GETS::total         1866                       (Unspecified)
board.cache_hierarchy.ruby_system.L2Cache_Controller.M.L1_GETX |           2      3.33%      3.33% |           2      3.33%      6.67% |           2      3.33%     10.00% |           3      5.00%     15.00% |          21     35.00%     50.00% |           1      1.67%     51.67% |           2      3.33%     55.00% |           2      3.33%     58.33% |           2      3.33%     61.67% |           2      3.33%     65.00% |           2      3.33%     68.33% |           2      3.33%     71.67% |          14     23.33%     95.00% |           1      1.67%     96.67% |           1      1.67%     98.33% |           1      1.67%    100.00% (Unspecified)
board.cache_hierarchy.ruby_system.L2Cache_Controller.M.L1_GETX::total           60                       (Unspecified)
board.cache_hierarchy.ruby_system.L2Cache_Controller.MT.L1_GETS |          35      5.54%      5.54% |          95     15.03%     20.57% |          66     10.44%     31.01% |          50      7.91%     38.92% |          32      5.06%     43.99% |          60      9.49%     53.48% |          20      3.16%     56.65% |          21      3.32%     59.97% |          20      3.16%     63.13% |          41      6.49%     69.62% |          41      6.49%     76.11% |          19      3.01%     79.11% |          32      5.06%     84.18% |          34      5.38%     89.56% |          38      6.01%     95.57% |          28      4.43%    100.00% (Unspecified)
board.cache_hierarchy.ruby_system.L2Cache_Controller.MT.L1_GETS::total          632                       (Unspecified)
board.cache_hierarchy.ruby_system.L2Cache_Controller.MT.L1_GETX |          13      5.86%      5.86% |           6      2.70%      8.56% |           0      0.00%      8.56% |           0      0.00%      8.56% |          20      9.01%     17.57% |          29     13.06%     30.63% |          26     11.71%     42.34% |          29     13.06%     55.41% |          29     13.06%     68.47% |          13      5.86%     74.32% |          15      6.76%     81.08% |          13      5.86%     86.94% |          16      7.21%     94.14% |          13      5.86%    100.00% |           0      0.00%    100.00% |           0      0.00%    100.00% (Unspecified)
board.cache_hierarchy.ruby_system.L2Cache_Controller.MT.L1_GETX::total          222                       (Unspecified)
board.cache_hierarchy.ruby_system.L2Cache_Controller.MT.L1_PUTX |           8      2.27%      2.27% |          20      5.68%      7.95% |          15      4.26%     12.22% |          31      8.81%     21.02% |          47     13.35%     34.38% |          32      9.09%     43.47% |          30      8.52%     51.99% |          15      4.26%     56.25% |          15      4.26%     60.51% |          14      3.98%     64.49% |          31      8.81%     73.30% |          12      3.41%     76.70% |          29      8.24%     84.94% |          30      8.52%     93.47% |          15      4.26%     97.73% |           8      2.27%    100.00% (Unspecified)
board.cache_hierarchy.ruby_system.L2Cache_Controller.MT.L1_PUTX::total          352                       (Unspecified)
board.cache_hierarchy.ruby_system.L2Cache_Controller.ISS.Mem_Data |           0      0.00%      0.00% |           2      3.17%      3.17% |           0      0.00%      3.17% |           0      0.00%      3.17% |          16     25.40%     28.57% |           1      1.59%     30.16% |           2      3.17%     33.33% |           0      0.00%     33.33% |           1      1.59%     34.92% |          17     26.98%     61.90% |           1      1.59%     63.49% |           2      3.17%     66.67% |           1      1.59%     68.25% |           0      0.00%     68.25% |           3      4.76%     73.02% |          17     26.98%    100.00% (Unspecified)
board.cache_hierarchy.ruby_system.L2Cache_Controller.ISS.Mem_Data::total           63                       (Unspecified)
board.cache_hierarchy.ruby_system.L2Cache_Controller.IS.L1_GET_INSTR |           0      0.00%      0.00% |           1      5.56%      5.56% |           2     11.11%     16.67% |           0      0.00%     16.67% |           1      5.56%     22.22% |           2     11.11%     33.33% |           2     11.11%     44.44% |           1      5.56%     50.00% |           0      0.00%     50.00% |           0      0.00%     50.00% |           0      0.00%     50.00% |           1      5.56%     55.56% |           2     11.11%     66.67% |           2     11.11%     77.78% |           1      5.56%     83.33% |           3     16.67%    100.00% (Unspecified)
board.cache_hierarchy.ruby_system.L2Cache_Controller.IS.L1_GET_INSTR::total           18                       (Unspecified)
board.cache_hierarchy.ruby_system.L2Cache_Controller.IS.Mem_Data |          25      6.53%      6.53% |          26      6.79%     13.32% |          28      7.31%     20.63% |          29      7.57%     28.20% |          26      6.79%     34.99% |          25      6.53%     41.51% |          20      5.22%     46.74% |          18      4.70%     51.44% |          20      5.22%     56.66% |          24      6.27%     62.92% |          23      6.01%     68.93% |          22      5.74%     74.67% |          27      7.05%     81.72% |          27      7.05%     88.77% |          21      5.48%     94.26% |          22      5.74%    100.00% (Unspecified)
board.cache_hierarchy.ruby_system.L2Cache_Controller.IS.Mem_Data::total          383                       (Unspecified)
board.cache_hierarchy.ruby_system.L2Cache_Controller.IM.Mem_Data |          31      4.72%      4.72% |          45      6.85%     11.57% |          48      7.31%     18.87% |          48      7.31%     26.18% |          48      7.31%     33.49% |          65      9.89%     43.38% |          48      7.31%     50.68% |          48      7.31%     57.99% |          48      7.31%     65.30% |          31      4.72%     70.02% |          31      4.72%     74.73% |          16      2.44%     77.17% |          33      5.02%     82.19% |          48      7.31%     89.50% |          41      6.24%     95.74% |          28      4.26%    100.00% (Unspecified)
board.cache_hierarchy.ruby_system.L2Cache_Controller.IM.Mem_Data::total          657                       (Unspecified)
board.cache_hierarchy.ruby_system.L2Cache_Controller.SS_MB.L1_UPGRADE |           0      0.00%      0.00% |           0      0.00%      0.00% |           0      0.00%      0.00% |           0      0.00%      0.00% |           0      0.00%      0.00% |           0      0.00%      0.00% |           0      0.00%      0.00% |           0      0.00%      0.00% |           0      0.00%      0.00% |           0      0.00%      0.00% |           1    100.00%    100.00% |           0      0.00%    100.00% |           0      0.00%    100.00% |           0      0.00%    100.00% |           0      0.00%    100.00% |           0      0.00%    100.00% (Unspecified)
board.cache_hierarchy.ruby_system.L2Cache_Controller.SS_MB.L1_UPGRADE::total            1                       (Unspecified)
board.cache_hierarchy.ruby_system.L2Cache_Controller.SS_MB.Exclusive_Unblock |           1      0.44%      0.44% |          63     27.51%     27.95% |          31     13.54%     41.48% |          15      6.55%     48.03% |          15      6.55%     54.59% |          33     14.41%     69.00% |           3      1.31%     70.31% |           5      2.18%     72.49% |           2      0.87%     73.36% |           2      0.87%     74.24% |          23     10.04%     84.28% |           0      0.00%     84.28% |          15      6.55%     90.83% |           3      1.31%     92.14% |          17      7.42%     99.56% |           1      0.44%    100.00% (Unspecified)
board.cache_hierarchy.ruby_system.L2Cache_Controller.SS_MB.Exclusive_Unblock::total          229                       (Unspecified)
board.cache_hierarchy.ruby_system.L2Cache_Controller.MT_MB.Exclusive_Unblock |         155      5.40%      5.40% |         169      5.89%     11.30% |         165      5.75%     17.05% |         180      6.28%     23.33% |         225      7.85%     31.17% |         219      7.64%     38.81% |         198      6.90%     45.71% |         196      6.83%     52.55% |         197      6.87%     59.41% |         175      6.10%     65.52% |         168      5.86%     71.37% |         145      5.06%     76.43% |         182      6.35%     82.78% |         179      6.24%     89.02% |         161      5.61%     94.63% |         154      5.37%    100.00% (Unspecified)
board.cache_hierarchy.ruby_system.L2Cache_Controller.MT_MB.Exclusive_Unblock::total         2868                       (Unspecified)
board.cache_hierarchy.ruby_system.L2Cache_Controller.MT_IIB.L1_GETS |           0      0.00%      0.00% |           1    100.00%    100.00% |           0      0.00%    100.00% |           0      0.00%    100.00% |           0      0.00%    100.00% |           0      0.00%    100.00% |           0      0.00%    100.00% |           0      0.00%    100.00% |           0      0.00%    100.00% |           0      0.00%    100.00% |           0      0.00%    100.00% |           0      0.00%    100.00% |           0      0.00%    100.00% |           0      0.00%    100.00% |           0      0.00%    100.00% |           0      0.00%    100.00% (Unspecified)
board.cache_hierarchy.ruby_system.L2Cache_Controller.MT_IIB.L1_GETS::total            1                       (Unspecified)
board.cache_hierarchy.ruby_system.L2Cache_Controller.MT_IIB.WB_Data |          23      4.26%      4.26% |          65     12.04%     16.30% |          65     12.04%     28.33% |          32      5.93%     34.26% |          29      5.37%     39.63% |          59     10.93%     50.56% |          19      3.52%     54.07% |          20      3.70%     57.78% |          19      3.52%     61.30% |          40      7.41%     68.70% |          26      4.81%     73.52% |          19      3.52%     77.04% |          31      5.74%     82.78% |          33      6.11%     88.89% |          35      6.48%     95.37% |          25      4.63%    100.00% (Unspecified)
board.cache_hierarchy.ruby_system.L2Cache_Controller.MT_IIB.WB_Data::total          540                       (Unspecified)
board.cache_hierarchy.ruby_system.L2Cache_Controller.MT_IIB.WB_Data_clean |          12     42.86%     42.86% |           0      0.00%     42.86% |           1      3.57%     46.43% |           2      7.14%     53.57% |           1      3.57%     57.14% |           1      3.57%     60.71% |           1      3.57%     64.29% |           0      0.00%     64.29% |           1      3.57%     67.86% |           1      3.57%     71.43% |           2      7.14%     78.57% |           0      0.00%     78.57% |           1      3.57%     82.14% |           1      3.57%     85.71% |           2      7.14%     92.86% |           2      7.14%    100.00% (Unspecified)
board.cache_hierarchy.ruby_system.L2Cache_Controller.MT_IIB.WB_Data_clean::total           28                       (Unspecified)
board.cache_hierarchy.ruby_system.L2Cache_Controller.MT_IIB.Unblock |           0      0.00%      0.00% |          30     46.88%     46.88% |           0      0.00%     46.88% |          16     25.00%     71.88% |           2      3.12%     75.00% |           0      0.00%     75.00% |           0      0.00%     75.00% |           1      1.56%     76.56% |           0      0.00%     76.56% |           0      0.00%     76.56% |          13     20.31%     96.88% |           0      0.00%     96.88% |           0      0.00%     96.88% |           0      0.00%     96.88% |           1      1.56%     98.44% |           1      1.56%    100.00% (Unspecified)
board.cache_hierarchy.ruby_system.L2Cache_Controller.MT_IIB.Unblock::total           64                       (Unspecified)
board.cache_hierarchy.ruby_system.L2Cache_Controller.MT_IB.WB_Data |           0      0.00%      0.00% |          30     62.50%     62.50% |           0      0.00%     62.50% |           1      2.08%     64.58% |           2      4.17%     68.75% |           0      0.00%     68.75% |           0      0.00%     68.75% |           1      2.08%     70.83% |           0      0.00%     70.83% |           0      0.00%     70.83% |          13     27.08%     97.92% |           0      0.00%     97.92% |           0      0.00%     97.92% |           0      0.00%     97.92% |           0      0.00%     97.92% |           1      2.08%    100.00% (Unspecified)
board.cache_hierarchy.ruby_system.L2Cache_Controller.MT_IB.WB_Data::total           48                       (Unspecified)
board.cache_hierarchy.ruby_system.L2Cache_Controller.MT_IB.WB_Data_clean |           0      0.00%      0.00% |           0      0.00%      0.00% |           0      0.00%      0.00% |          15     93.75%     93.75% |           0      0.00%     93.75% |           0      0.00%     93.75% |           0      0.00%     93.75% |           0      0.00%     93.75% |           0      0.00%     93.75% |           0      0.00%     93.75% |           0      0.00%     93.75% |           0      0.00%     93.75% |           0      0.00%     93.75% |           0      0.00%     93.75% |           1      6.25%    100.00% |           0      0.00%    100.00% (Unspecified)
board.cache_hierarchy.ruby_system.L2Cache_Controller.MT_IB.WB_Data_clean::total           16                       (Unspecified)
board.cache_hierarchy.ruby_system.L2Cache_Controller.MT_SB.Unblock |          35      6.16%      6.16% |          65     11.44%     17.61% |          66     11.62%     29.23% |          34      5.99%     35.21% |          30      5.28%     40.49% |          60     10.56%     51.06% |          20      3.52%     54.58% |          20      3.52%     58.10% |          20      3.52%     61.62% |          41      7.22%     68.84% |          28      4.93%     73.77% |          19      3.35%     77.11% |          32      5.63%     82.75% |          34      5.99%     88.73% |          37      6.51%     95.25% |          27      4.75%    100.00% (Unspecified)
board.cache_hierarchy.ruby_system.L2Cache_Controller.MT_SB.Unblock::total          568                       (Unspecified)
board.cache_hierarchy.ruby_system.RequestType.LD.latency_hist_seqr::bucket_size           32                       (Unspecified)
board.cache_hierarchy.ruby_system.RequestType.LD.latency_hist_seqr::max_bucket          319                       (Unspecified)
board.cache_hierarchy.ruby_system.RequestType.LD.latency_hist_seqr::samples       382682                       (Unspecified)
board.cache_hierarchy.ruby_system.RequestType.LD.latency_hist_seqr::mean     1.176828                       (Unspecified)
board.cache_hierarchy.ruby_system.RequestType.LD.latency_hist_seqr::gmean     1.023051                       (Unspecified)
board.cache_hierarchy.ruby_system.RequestType.LD.latency_hist_seqr::stdev     2.832792                       (Unspecified)
board.cache_hierarchy.ruby_system.RequestType.LD.latency_hist_seqr |      382468     99.94%     99.94% |         151      0.04%     99.98% |           0      0.00%     99.98% |           0      0.00%     99.98% |          34      0.01%     99.99% |          22      0.01%    100.00% |           2      0.00%    100.00% |           4      0.00%    100.00% |           0      0.00%    100.00% |           1      0.00%    100.00% (Unspecified)
board.cache_hierarchy.ruby_system.RequestType.LD.latency_hist_seqr::total       382682                       (Unspecified)
board.cache_hierarchy.ruby_system.RequestType.LD.hit_latency_hist_seqr::bucket_size            1                       (Unspecified)
board.cache_hierarchy.ruby_system.RequestType.LD.hit_latency_hist_seqr::max_bucket            9                       (Unspecified)
board.cache_hierarchy.ruby_system.RequestType.LD.hit_latency_hist_seqr::samples       379884                       (Unspecified)
board.cache_hierarchy.ruby_system.RequestType.LD.hit_latency_hist_seqr::mean     1.000008                       (Unspecified)
board.cache_hierarchy.ruby_system.RequestType.LD.hit_latency_hist_seqr::gmean     1.000005                       (Unspecified)
board.cache_hierarchy.ruby_system.RequestType.LD.hit_latency_hist_seqr::stdev     0.002810                       (Unspecified)
board.cache_hierarchy.ruby_system.RequestType.LD.hit_latency_hist_seqr |           0      0.00%      0.00% |      379881    100.00%    100.00% |           3      0.00%    100.00% |           0      0.00%    100.00% |           0      0.00%    100.00% |           0      0.00%    100.00% |           0      0.00%    100.00% |           0      0.00%    100.00% |           0      0.00%    100.00% |           0      0.00%    100.00% (Unspecified)
board.cache_hierarchy.ruby_system.RequestType.LD.hit_latency_hist_seqr::total       379884                       (Unspecified)
board.cache_hierarchy.ruby_system.RequestType.LD.miss_latency_hist_seqr::bucket_size           32                       (Unspecified)
board.cache_hierarchy.ruby_system.RequestType.LD.miss_latency_hist_seqr::max_bucket          319                       (Unspecified)
board.cache_hierarchy.ruby_system.RequestType.LD.miss_latency_hist_seqr::samples         2798                       (Unspecified)
board.cache_hierarchy.ruby_system.RequestType.LD.miss_latency_hist_seqr::mean    25.183703                       (Unspecified)
board.cache_hierarchy.ruby_system.RequestType.LD.miss_latency_hist_seqr::gmean    22.558293                       (Unspecified)
board.cache_hierarchy.ruby_system.RequestType.LD.miss_latency_hist_seqr::stdev    22.740799                       (Unspecified)
board.cache_hierarchy.ruby_system.RequestType.LD.miss_latency_hist_seqr |        2584     92.35%     92.35% |         151      5.40%     97.75% |           0      0.00%     97.75% |           0      0.00%     97.75% |          34      1.22%     98.96% |          22      0.79%     99.75% |           2      0.07%     99.82% |           4      0.14%     99.96% |           0      0.00%     99.96% |           1      0.04%    100.00% (Unspecified)
board.cache_hierarchy.ruby_system.RequestType.LD.miss_latency_hist_seqr::total         2798                       (Unspecified)
board.cache_hierarchy.ruby_system.RequestType.ST.latency_hist_seqr::bucket_size          128                       (Unspecified)
board.cache_hierarchy.ruby_system.RequestType.ST.latency_hist_seqr::max_bucket         1279                       (Unspecified)
board.cache_hierarchy.ruby_system.RequestType.ST.latency_hist_seqr::samples       192936                       (Unspecified)
board.cache_hierarchy.ruby_system.RequestType.ST.latency_hist_seqr::mean     1.585355                       (Unspecified)
board.cache_hierarchy.ruby_system.RequestType.ST.latency_hist_seqr::gmean     1.023847                       (Unspecified)
[...]
board.processor.cores9.core.commitStats0.committedControl::IsUncondControl         4268                       # Class of control type instructions committed (Count)
board.processor.cores9.core.commitStats0.committedControl::IsCall         2126                       # Class of control type instructions committed (Count)
board.processor.cores9.core.commitStats0.committedControl::IsReturn         2125                       # Class of control type instructions committed (Count)
board.processor.cores9.core.decode.idleCycles        21430                       # Number of cycles decode is idle (Cycle)
board.processor.cores9.core.decode.blockedCycles        92871                       # Number of cycles decode is blocked (Cycle)
board.processor.cores9.core.decode.runCycles        36150                       # Number of cycles decode is running (Cycle)
board.processor.cores9.core.decode.unblockCycles        10348                       # Number of cycles decode is unblocking (Cycle)
board.processor.cores9.core.decode.squashCycles         2176                       # Number of cycles decode is squashing (Cycle)
board.processor.cores9.core.decode.branchResolved        10667                       # Number of times decode resolved a branch (Count)
board.processor.cores9.core.decode.branchMispred          116                       # Number of times decode detected a branch misprediction (Count)
board.processor.cores9.core.decode.decodedInsts       322158                       # Number of instructions handled by decode (Count)
board.processor.cores9.core.decode.squashedInsts          600                       # Number of squashed instructions handled by decode (Count)
board.processor.cores9.core.executeStats0.numInsts       221449                       # Number of executed instructions (Count)
board.processor.cores9.core.executeStats0.numNop            0                       # Number of nop insts executed (Count)
board.processor.cores9.core.executeStats0.numBranches        12970                       # Number of branches executed (Count)
board.processor.cores9.core.executeStats0.numLoadInsts        56131                       # Number of load instructions executed (Count)
board.processor.cores9.core.executeStats0.numStoreInsts        16965                       # Number of stores executed (Count)
board.processor.cores9.core.executeStats0.instRate     1.357059                       # Inst execution rate ((Count/Cycle))
board.processor.cores9.core.executeStats0.numCCRegReads        35192                       # Number of times the CC registers were read (Count)
board.processor.cores9.core.executeStats0.numCCRegWrites        54650                       # Number of times the CC registers were written (Count)
board.processor.cores9.core.executeStats0.numFpRegReads           26                       # Number of times the floating registers were read (Count)
board.processor.cores9.core.executeStats0.numFpRegWrites           12                       # Number of times the floating registers were written (Count)
board.processor.cores9.core.executeStats0.numIntRegReads       281483                       # Number of times the integer registers were read (Count)
board.processor.cores9.core.executeStats0.numIntRegWrites       178570                       # Number of times the integer registers were written (Count)
board.processor.cores9.core.executeStats0.numMemRefs        73096                       # Number of memory refs (Count)
board.processor.cores9.core.executeStats0.numMiscRegReads       101109                       # Number of times the Misc registers were read (Count)
board.processor.cores9.core.executeStats0.numMiscRegWrites            1                       # Number of times the Misc registers were written (Count)
board.processor.cores9.core.executeStats0.numVecAluAccesses            0                       # Number of vector alu accesses (Count)
board.processor.cores9.core.executeStats0.numDiscardedOps            0                       # Number of ops (including micro ops) which were discarded before commit (Count)
board.processor.cores9.core.fetch.predictedBranches        16956                       # Number of branches that fetch has predicted taken (Count)
board.processor.cores9.core.fetch.cycles       130457                       # Number of cycles fetch has run and was not squashing or blocked (Cycle)
board.processor.cores9.core.fetch.squashCycles         4582                       # Number of cycles fetch has spent squashing (Cycle)
board.processor.cores9.core.fetch.miscStallCycles           22                       # Number of cycles fetch has spent waiting on interrupts, or bad addresses, or out of MSHRs (Cycle)
board.processor.cores9.core.fetch.pendingTrapStallCycles          165                       # Number of stall cycles due to pending traps (Cycle)
board.processor.cores9.core.fetch.cacheLines        25446                       # Number of cache lines fetched (Count)
board.processor.cores9.core.fetch.icacheSquashes           86                       # Number of outstanding Icache misses that were squashed (Count)
board.processor.cores9.core.fetch.nisnDist::samples       162975                       # Number of instructions fetched each cycle (Total) (Count)
board.processor.cores9.core.fetch.nisnDist::mean     2.389980                       # Number of instructions fetched each cycle (Total) (Count)
board.processor.cores9.core.fetch.nisnDist::stdev     3.340619                       # Number of instructions fetched each cycle (Total) (Count)
board.processor.cores9.core.fetch.nisnDist::underflows            0      0.00%      0.00% # Number of instructions fetched each cycle (Total) (Count)
board.processor.cores9.core.fetch.nisnDist::0        99924     61.31%     61.31% # Number of instructions fetched each cycle (Total) (Count)
board.processor.cores9.core.fetch.nisnDist::1         2124      1.30%     62.62% # Number of instructions fetched each cycle (Total) (Count)
board.processor.cores9.core.fetch.nisnDist::2         4125      2.53%     65.15% # Number of instructions fetched each cycle (Total) (Count)
board.processor.cores9.core.fetch.nisnDist::3         8278      5.08%     70.23% # Number of instructions fetched each cycle (Total) (Count)
board.processor.cores9.core.fetch.nisnDist::4           76      0.05%     70.27% # Number of instructions fetched each cycle (Total) (Count)
board.processor.cores9.core.fetch.nisnDist::5         8347      5.12%     75.39% # Number of instructions fetched each cycle (Total) (Count)
board.processor.cores9.core.fetch.nisnDist::6         4200      2.58%     77.97% # Number of instructions fetched each cycle (Total) (Count)
board.processor.cores9.core.fetch.nisnDist::7          148      0.09%     78.06% # Number of instructions fetched each cycle (Total) (Count)
board.processor.cores9.core.fetch.nisnDist::8        35753     21.94%    100.00% # Number of instructions fetched each cycle (Total) (Count)
board.processor.cores9.core.fetch.nisnDist::overflows            0      0.00%    100.00% # Number of instructions fetched each cycle (Total) (Count)
board.processor.cores9.core.fetch.nisnDist::min_value            0                       # Number of instructions fetched each cycle (Total) (Count)
board.processor.cores9.core.fetch.nisnDist::max_value            8                       # Number of instructions fetched each cycle (Total) (Count)
board.processor.cores9.core.fetch.nisnDist::total       162975                       # Number of instructions fetched each cycle (Total) (Count)
board.processor.cores9.core.fetchStats0.numInsts       234412                       # Number of instructions fetched (thread level) (Count)
board.processor.cores9.core.fetchStats0.numOps            0                       # Number of ops (including micro ops) fetched (thread level) (Count)
board.processor.cores9.core.fetchStats0.fetchRate     1.436498                       # Number of inst fetches per cycle ((Count/Cycle))
board.processor.cores9.core.fetchStats0.numBranches        23752                       # Number of branches fetched (Count)
board.processor.cores9.core.fetchStats0.branchRate     0.145554                       # Number of branch fetches per cycle (Ratio)
board.processor.cores9.core.fetchStats0.icacheStallCycles        30040                       # ICache total stall cycles (Cycle)
board.processor.cores9.core.fetchStats0.numFetchSuspends            0                       # Number of times Execute suspended instruction fetching (Count)
board.processor.cores9.core.iew.idleCycles            0                       # Number of cycles IEW is idle (Cycle)
board.processor.cores9.core.iew.squashCycles         2176                       # Number of cycles IEW is squashing (Cycle)
board.processor.cores9.core.iew.blockCycles        48207                       # Number of cycles IEW is blocking (Cycle)
board.processor.cores9.core.iew.unblockCycles         4637                       # Number of cycles IEW is unblocking (Cycle)
board.processor.cores9.core.iew.dispatchedInsts       305043                       # Number of instructions dispatched to IQ (Count)
board.processor.cores9.core.iew.dispSquashedInsts            2                       # Number of squashed instructions skipped by dispatch (Count)
board.processor.cores9.core.iew.dispLoadInsts        76953                       # Number of dispatched load instructions (Count)
board.processor.cores9.core.iew.dispStoreInsts        25278                       # Number of dispatched store instructions (Count)
board.processor.cores9.core.iew.dispNonSpecInsts         4124                       # Number of dispatched non-speculative instructions (Count)
board.processor.cores9.core.iew.iqFullEvents          541                       # Number of times the IQ has become full, causing a stall (Count)
board.processor.cores9.core.iew.lsqFullEvents            1                       # Number of times the LSQ has become full, causing a stall (Count)
board.processor.cores9.core.iew.memOrderViolationEvents         2056                       # Number of memory order violations (Count)
board.processor.cores9.core.iew.predictedTakenIncorrect            7                       # Number of branches that were predicted taken incorrectly (Count)
board.processor.cores9.core.iew.predictedNotTakenIncorrect          123                       # Number of branches that were predicted not taken incorrectly (Count)
board.processor.cores9.core.iew.branchMispredicts          130                       # Number of branch mispredicts detected at execute (Count)
board.processor.cores9.core.iew.instsToCommit       221417                       # Cumulative count of insts sent to commit (Count)
board.processor.cores9.core.iew.writebackCount       221298                       # Cumulative count of insts written-back (Count)
board.processor.cores9.core.iew.producerInst       165934                       # Number of instructions producing a value (Count)
board.processor.cores9.core.iew.consumerInst       266685                       # Number of instructions consuming a value (Count)
board.processor.cores9.core.iew.wbRate       1.356134                       # Insts written-back per cycle ((Count/Cycle))
board.processor.cores9.core.iew.wbFanout     0.622210                       # Average fanout of values written-back ((Count/Count))
board.processor.cores9.core.interrupts.clk_domain.clock         5328                       # Clock period in ticks (Tick)
board.processor.cores9.core.lsq0.forwLoads         4290                       # Number of loads that had data forwarded from stores (Count)
board.processor.cores9.core.lsq0.squashedLoads        43614                       # Number of loads squashed (Count)
board.processor.cores9.core.lsq0.ignoredResponses            1                       # Number of memory responses ignored because the instruction is squashed (Count)
board.processor.cores9.core.lsq0.memOrderViolation         2056                       # Number of memory ordering violations (Count)
board.processor.cores9.core.lsq0.squashedStores        12549                       # Number of stores squashed (Count)
board.processor.cores9.core.lsq0.rescheduledLoads            0                       # Number of loads that were rescheduled (Count)
board.processor.cores9.core.lsq0.blockedByCache            0                       # Number of times an access to memory failed due to the cache being blocked (Count)
board.processor.cores9.core.lsq0.loadToUse::samples        33339                       # Distribution of cycle latency between the first time a load is issued and its completion (Unspecified)
board.processor.cores9.core.lsq0.loadToUse::mean     2.989652                       # Distribution of cycle latency between the first time a load is issued and its completion (Unspecified)
board.processor.cores9.core.lsq0.loadToUse::stdev     2.196176                       # Distribution of cycle latency between the first time a load is issued and its completion (Unspecified)
board.processor.cores9.core.lsq0.loadToUse::0-9        33173     99.50%     99.50% # Distribution of cycle latency between the first time a load is issued and its completion (Unspecified)
board.processor.cores9.core.lsq0.loadToUse::10-19           10      0.03%     99.53% # Distribution of cycle latency between the first time a load is issued and its completion (Unspecified)
board.processor.cores9.core.lsq0.loadToUse::20-29          140      0.42%     99.95% # Distribution of cycle latency between the first time a load is issued and its completion (Unspecified)
board.processor.cores9.core.lsq0.loadToUse::30-39           12      0.04%     99.99% # Distribution of cycle latency between the first time a load is issued and its completion (Unspecified)
board.processor.cores9.core.lsq0.loadToUse::100-109            1      0.00%     99.99% # Distribution of cycle latency between the first time a load is issued and its completion (Unspecified)
board.processor.cores9.core.lsq0.loadToUse::140-149            2      0.01%    100.00% # Distribution of cycle latency between the first time a load is issued and its completion (Unspecified)
board.processor.cores9.core.lsq0.loadToUse::190-199            1      0.00%    100.00% # Distribution of cycle latency between the first time a load is issued and its completion (Unspecified)
board.processor.cores9.core.lsq0.loadToUse::min_value            2                       # Distribution of cycle latency between the first time a load is issued and its completion (Unspecified)
board.processor.cores9.core.lsq0.loadToUse::max_value          191                       # Distribution of cycle latency between the first time a load is issued and its completion (Unspecified)
board.processor.cores9.core.lsq0.loadToUse::total        33339                       # Distribution of cycle latency between the first time a load is issued and its completion (Unspecified)
board.processor.cores9.core.mmu.dtb.rdAccesses        56131                       # TLB accesses on read requests (Count)
board.processor.cores9.core.mmu.dtb.wrAccesses        16965                       # TLB accesses on write requests (Count)
board.processor.cores9.core.mmu.dtb.rdMisses           81                       # TLB misses on read requests (Count)
board.processor.cores9.core.mmu.dtb.wrMisses           10                       # TLB misses on write requests (Count)
board.processor.cores9.core.mmu.dtb.walker.power_state.pwrStateResidencyTicks::UNDEFINED    329055282                       # Cumulative time (in ticks) in various power states (Tick)
board.processor.cores9.core.mmu.itb.rdAccesses            0                       # TLB accesses on read requests (Count)
board.processor.cores9.core.mmu.itb.wrAccesses        25472                       # TLB accesses on write requests (Count)
board.processor.cores9.core.mmu.itb.rdMisses            0                       # TLB misses on read requests (Count)
board.processor.cores9.core.mmu.itb.wrMisses           76                       # TLB misses on write requests (Count)
board.processor.cores9.core.mmu.itb.walker.power_state.pwrStateResidencyTicks::UNDEFINED    329055282                       # Cumulative time (in ticks) in various power states (Tick)
board.processor.cores9.core.power_state.pwrStateResidencyTicks::ON    329055282                       # Cumulative time (in ticks) in various power states (Tick)
board.processor.cores9.core.rename.squashCycles         2176                       # Number of cycles rename is squashing (Cycle)
board.processor.cores9.core.rename.idleCycles        21729                       # Number of cycles rename is idle (Cycle)
board.processor.cores9.core.rename.blockCycles        71867                       # Number of cycles rename is blocking (Cycle)
board.processor.cores9.core.rename.serializeStallCycles            0                       # count of cycles rename stalled for serializing inst (Cycle)
board.processor.cores9.core.rename.runCycles        44016                       # Number of cycles rename is running (Cycle)
board.processor.cores9.core.rename.unblockCycles        23187                       # Number of cycles rename is unblocking (Cycle)
board.processor.cores9.core.rename.renamedInsts       321827                       # Number of instructions processed by rename (Count)
board.processor.cores9.core.rename.IQFullEvents        20329                       # Number of times rename has blocked due to IQ full (Count)
board.processor.cores9.core.rename.LQFullEvents          112                       # Number of times rename has blocked due to LQ full (Count)
board.processor.cores9.core.rename.SQFullEvents          563                       # Number of times rename has blocked due to SQ full (Count)
board.processor.cores9.core.rename.renamedOperands       511594                       # Number of destination operands rename has renamed (Count)
board.processor.cores9.core.rename.lookups      1005990                       # Number of register rename lookups that rename has made (Count)
board.processor.cores9.core.rename.intLookups       440408                       # Number of integer rename lookups (Count)
board.processor.cores9.core.rename.fpLookups           26                       # Number of floating rename lookups (Count)
board.processor.cores9.core.rename.committedMaps       208650                       # Number of HB maps that are committed (Count)
board.processor.cores9.core.rename.undoneMaps       302944                       # Number of HB maps that are undone due to squashing (Count)
board.processor.cores9.core.rename.serializing            0                       # count of serializing insts renamed (Count)
board.processor.cores9.core.rename.tempSerializing            0                       # count of temporary serializing insts renamed (Count)
board.processor.cores9.core.rename.skidInsts        32294                       # count of insts added to the skid buffer (Count)
board.processor.cores9.core.rob.reads          436589                       # The number of ROB reads (Count)
board.processor.cores9.core.rob.writes         632790                       # The number of ROB writes (Count)
board.processor.cores9.core.thread_0.numInsts        79780                       # Number of Instructions committed (Count)
board.processor.cores9.core.thread_0.numOps       135227                       # Number of Ops committed (Count)
board.processor.cores9.core.thread_0.numMemRefs            0                       # Number of Memory References (Count)
board.workload.inst.arm                             0                       # number of arm instructions executed (Count)
board.workload.inst.quiesce                         0                       # number of quiesce instructions executed (Count)

---------- End Simulation Statistics   ----------
