
---------- Begin Simulation Statistics ----------
simSeconds                                   0.000917                       # Number of seconds simulated (Second)
simTicks                                    916745004                       # Number of ticks simulated (Tick)
finalTick                                  1181043774                       # Number of ticks from beginning of simulation (restored from checkpoints and never reset) (Tick)
simFreq                                  1000000000000                       # The number of ticks per simulated second ((Tick/Second))
hostSeconds                                     56.65                       # Real time elapsed on the host (Second)
hostTickRate                                 16183961                       # The number of ticks simulated per host second (ticks/s) ((Tick/Second))
hostMemory                                    1756540                       # Number of bytes of host memory used (Byte)
simInsts                                      1569857                       # Number of instructions simulated (Count)
simOps                                        2502516                       # Number of ops (including micro ops) simulated (Count)
hostInstRate                                    27714                       # Simulator instruction rate (inst/s) ((Count/Second))
hostOpRate                                      44179                       # Simulator op (including micro ops) rate (op/s) ((Count/Second))
board.cache_hierarchy.ruby_system.delayHistogram::bucket_size         1024                       # delay histogram for all message (Unspecified)
board.cache_hierarchy.ruby_system.delayHistogram::max_bucket        10239                       # delay histogram for all message (Unspecified)
board.cache_hierarchy.ruby_system.delayHistogram::samples       220324                       # delay histogram for all message (Unspecified)
board.cache_hierarchy.ruby_system.delayHistogram::mean  1093.908662                       # delay histogram for all message (Unspecified)
board.cache_hierarchy.ruby_system.delayHistogram::stdev  2687.095984                       # delay histogram for all message (Unspecified)
board.cache_hierarchy.ruby_system.delayHistogram |      188326     85.48%     85.48% |         469      0.21%     85.69% |         255      0.12%     85.81% |         376      0.17%     85.98% |         782      0.35%     86.33% |         788      0.36%     86.69% |         869      0.39%     87.08% |       26913     12.22%     99.30% |        1546      0.70%    100.00% |           0      0.00%    100.00% # delay histogram for all message (Unspecified)
board.cache_hierarchy.ruby_system.delayHistogram::total       220324                       # delay histogram for all message (Unspecified)
board.cache_hierarchy.ruby_system.m_outstandReqHistSeqr::bucket_size            2                       (Unspecified)
board.cache_hierarchy.ruby_system.m_outstandReqHistSeqr::max_bucket           19                       (Unspecified)
board.cache_hierarchy.ruby_system.m_outstandReqHistSeqr::samples      1069927                       (Unspecified)
board.cache_hierarchy.ruby_system.m_outstandReqHistSeqr::mean     1.204060                       (Unspecified)
board.cache_hierarchy.ruby_system.m_outstandReqHistSeqr::gmean     1.144511                       (Unspecified)
board.cache_hierarchy.ruby_system.m_outstandReqHistSeqr::stdev     0.486506                       (Unspecified)
board.cache_hierarchy.ruby_system.m_outstandReqHistSeqr |      870680     81.38%     81.38% |      195260     18.25%     99.63% |        3288      0.31%     99.93% |         305      0.03%     99.96% |         172      0.02%     99.98% |         104      0.01%     99.99% |          66      0.01%    100.00% |          43      0.00%    100.00% |           9      0.00%    100.00% |           0      0.00%    100.00% (Unspecified)
board.cache_hierarchy.ruby_system.m_outstandReqHistSeqr::total      1069927                       (Unspecified)
board.cache_hierarchy.ruby_system.m_latencyHistSeqr::bucket_size          256                       (Unspecified)
board.cache_hierarchy.ruby_system.m_latencyHistSeqr::max_bucket         2559                       (Unspecified)
board.cache_hierarchy.ruby_system.m_latencyHistSeqr::samples      1070279                       (Unspecified)
board.cache_hierarchy.ruby_system.m_latencyHistSeqr::mean    37.455076                       (Unspecified)
board.cache_hierarchy.ruby_system.m_latencyHistSeqr::gmean     1.428692                       (Unspecified)
board.cache_hierarchy.ruby_system.m_latencyHistSeqr::stdev   195.658997                       (Unspecified)
board.cache_hierarchy.ruby_system.m_latencyHistSeqr |     1037978     96.98%     96.98% |         457      0.04%     97.02% |         605      0.06%     97.08% |        1207      0.11%     97.19% |       30030      2.81%    100.00% |           2      0.00%    100.00% |           0      0.00%    100.00% |           0      0.00%    100.00% |           0      0.00%    100.00% |           0      0.00%    100.00% (Unspecified)
board.cache_hierarchy.ruby_system.m_latencyHistSeqr::total      1070279                       (Unspecified)
board.cache_hierarchy.ruby_system.m_hitLatencyHistSeqr::bucket_size          128                       (Unspecified)
board.cache_hierarchy.ruby_system.m_hitLatencyHistSeqr::max_bucket         1279                       (Unspecified)
board.cache_hierarchy.ruby_system.m_hitLatencyHistSeqr::samples       999614                       (Unspecified)
board.cache_hierarchy.ruby_system.m_hitLatencyHistSeqr::mean     1.004024                       (Unspecified)
board.cache_hierarchy.ruby_system.m_hitLatencyHistSeqr::gmean     1.000324                       (Unspecified)
board.cache_hierarchy.ruby_system.m_hitLatencyHistSeqr::stdev     1.379444                       (Unspecified)
board.cache_hierarchy.ruby_system.m_hitLatencyHistSeqr |      999600    100.00%    100.00% |          13      0.00%    100.00% |           0      0.00%    100.00% |           0      0.00%    100.00% |           0      0.00%    100.00% |           0      0.00%    100.00% |           0      0.00%    100.00% |           0      0.00%    100.00% |           0      0.00%    100.00% |           1      0.00%    100.00% (Unspecified)
board.cache_hierarchy.ruby_system.m_hitLatencyHistSeqr::total       999614                       (Unspecified)
board.cache_hierarchy.ruby_system.m_missLatencyHistSeqr::bucket_size          256                       (Unspecified)
board.cache_hierarchy.ruby_system.m_missLatencyHistSeqr::max_bucket         2559                       (Unspecified)
board.cache_hierarchy.ruby_system.m_missLatencyHistSeqr::samples        70665                       (Unspecified)
board.cache_hierarchy.ruby_system.m_missLatencyHistSeqr::mean   553.084908                       (Unspecified)
board.cache_hierarchy.ruby_system.m_missLatencyHistSeqr::gmean   221.145442                       (Unspecified)
board.cache_hierarchy.ruby_system.m_missLatencyHistSeqr::stdev   543.255128                       (Unspecified)
board.cache_hierarchy.ruby_system.m_missLatencyHistSeqr |       38365     54.29%     54.29% |         457      0.65%     54.94% |         605      0.86%     55.79% |        1207      1.71%     57.50% |       30029     42.49%    100.00% |           2      0.00%    100.00% |           0      0.00%    100.00% |           0      0.00%    100.00% |           0      0.00%    100.00% |           0      0.00%    100.00% (Unspecified)
board.cache_hierarchy.ruby_system.m_missLatencyHistSeqr::total        70665                       (Unspecified)
board.cache_hierarchy.ruby_system.delayVCHist.vnet_0::bucket_size         1024                       # delay histogram for vnet_0 (Unspecified)
board.cache_hierarchy.ruby_system.delayVCHist.vnet_0::max_bucket        10239                       # delay histogram for vnet_0 (Unspecified)
board.cache_hierarchy.ruby_system.delayVCHist.vnet_0::samples       109684                       # delay histogram for vnet_0 (Unspecified)
board.cache_hierarchy.ruby_system.delayVCHist.vnet_0::mean  2197.143011                       # delay histogram for vnet_0 (Unspecified)
board.cache_hierarchy.ruby_system.delayVCHist.vnet_0::stdev  3475.659659                       # delay histogram for vnet_0 (Unspecified)
board.cache_hierarchy.ruby_system.delayVCHist.vnet_0 |       77686     70.83%     70.83% |         469      0.43%     71.25% |         255      0.23%     71.49% |         376      0.34%     71.83% |         782      0.71%     72.54% |         788      0.72%     73.26% |         869      0.79%     74.05% |       26913     24.54%     98.59% |        1546      1.41%    100.00% |           0      0.00%    100.00% # delay histogram for vnet_0 (Unspecified)
board.cache_hierarchy.ruby_system.delayVCHist.vnet_0::total       109684                       # delay histogram for vnet_0 (Unspecified)
board.cache_hierarchy.ruby_system.delayVCHist.vnet_1::bucket_size            4                       # delay histogram for vnet_1 (Unspecified)
board.cache_hierarchy.ruby_system.delayVCHist.vnet_1::max_bucket           39                       # delay histogram for vnet_1 (Unspecified)
board.cache_hierarchy.ruby_system.delayVCHist.vnet_1::samples        75113                       # delay histogram for vnet_1 (Unspecified)
board.cache_hierarchy.ruby_system.delayVCHist.vnet_1::mean     0.304581                       # delay histogram for vnet_1 (Unspecified)
board.cache_hierarchy.ruby_system.delayVCHist.vnet_1::stdev     1.679650                       # delay histogram for vnet_1 (Unspecified)
board.cache_hierarchy.ruby_system.delayVCHist.vnet_1 |       72643     96.71%     96.71% |         263      0.35%     97.06% |        2116      2.82%     99.88% |          41      0.05%     99.93% |          45      0.06%     99.99% |           2      0.00%    100.00% |           3      0.00%    100.00% |           0      0.00%    100.00% |           0      0.00%    100.00% |           0      0.00%    100.00% # delay histogram for vnet_1 (Unspecified)
board.cache_hierarchy.ruby_system.delayVCHist.vnet_1::total        75113                       # delay histogram for vnet_1 (Unspecified)
board.cache_hierarchy.ruby_system.delayVCHist.vnet_2::bucket_size            1                       # delay histogram for vnet_2 (Unspecified)
board.cache_hierarchy.ruby_system.delayVCHist.vnet_2::max_bucket            9                       # delay histogram for vnet_2 (Unspecified)
board.cache_hierarchy.ruby_system.delayVCHist.vnet_2::samples        35527                       # delay histogram for vnet_2 (Unspecified)
board.cache_hierarchy.ruby_system.delayVCHist.vnet_2::mean     0.000563                       # delay histogram for vnet_2 (Unspecified)
board.cache_hierarchy.ruby_system.delayVCHist.vnet_2::stdev     0.033550                       # delay histogram for vnet_2 (Unspecified)
board.cache_hierarchy.ruby_system.delayVCHist.vnet_2 |       35517     99.97%     99.97% |           0      0.00%     99.97% |          10      0.03%    100.00% |           0      0.00%    100.00% |           0      0.00%    100.00% |           0      0.00%    100.00% |           0      0.00%    100.00% |           0      0.00%    100.00% |           0      0.00%    100.00% |           0      0.00%    100.00% # delay histogram for vnet_2 (Unspecified)
board.cache_hierarchy.ruby_system.delayVCHist.vnet_2::total        35527                       # delay histogram for vnet_2 (Unspecified)
board.cache_hierarchy.ruby_system.Directory_Controller.Fetch         1234      0.00%      0.00% (Unspecified)
board.cache_hierarchy.ruby_system.Directory_Controller.Memory_Data         1234      0.00%      0.00% (Unspecified)
board.cache_hierarchy.ruby_system.Directory_Controller.I.Fetch         1234      0.00%      0.00% (Unspecified)
board.cache_hierarchy.ruby_system.Directory_Controller.IM.Memory_Data         1234      0.00%      0.00% (Unspecified)
board.cache_hierarchy.ruby_system.L1Cache_Controller.Load |       13399      5.34%      5.34% |       14884      5.93%     11.27% |       14847      5.91%     17.18% |       14836      5.91%     23.09% |       14842      5.91%     29.00% |       14861      5.92%     34.92% |       14837      5.91%     40.83% |       14856      5.92%     46.75% |       14841      5.91%     52.66% |       14857      5.92%     58.58% |       14840      5.91%     64.49% |       14856      5.92%     70.41% |       14847      5.91%     76.33% |       14863      5.92%     82.25% |       14855      5.92%     88.16% |       14848      5.91%     94.08% |       14866      5.92%    100.00% (Unspecified)
board.cache_hierarchy.ruby_system.L1Cache_Controller.Load::total       251035                       (Unspecified)
board.cache_hierarchy.ruby_system.L1Cache_Controller.Ifetch |       20858      3.74%      3.74% |       33546      6.01%      9.75% |       33520      6.01%     15.76% |       33521      6.01%     21.77% |       33532      6.01%     27.78% |       33553      6.01%     33.79% |       33519      6.01%     39.80% |       33542      6.01%     45.81% |       33519      6.01%     51.82% |       33562      6.02%     57.83% |       33537      6.01%     63.84% |       33627      6.03%     69.87% |       33530      6.01%     75.88% |       33652      6.03%     81.91% |       33622      6.03%     87.94% |       33643      6.03%     93.97% |       33651      6.03%    100.00% (Unspecified)
board.cache_hierarchy.ruby_system.L1Cache_Controller.Ifetch::total       557934                       (Unspecified)
board.cache_hierarchy.ruby_system.L1Cache_Controller.Store |       22865      8.75%      8.75% |       15089      5.77%     14.52% |       14793      5.66%     20.19% |       14793      5.66%     25.85% |       14793      5.66%     31.51% |       14793      5.66%     37.17% |       14793      5.66%     42.83% |       14793      5.66%     48.49% |       14793      5.66%     54.15% |       14793      5.66%     59.81% |       14793      5.66%     65.47% |       15085      5.77%     71.25% |       14793      5.66%     76.91% |       15085      5.77%     82.68% |       15085      5.77%     88.45% |       15085      5.77%     94.23% |       15085      5.77%    100.00% (Unspecified)
board.cache_hierarchy.ruby_system.L1Cache_Controller.Store::total       261309                       (Unspecified)
board.cache_hierarchy.ruby_system.L1Cache_Controller.Inv |          91     35.00%     35.00% |          10      3.85%     38.85% |           9      3.46%     42.31% |          10      3.85%     46.15% |          10      3.85%     50.00% |          11      4.23%     54.23% |           9      3.46%     57.69% |          10      3.85%     61.54% |          10      3.85%     65.38% |          12      4.62%     70.00% |          13      5.00%     75.00% |          13      5.00%     80.00% |          10      3.85%     83.85% |          14      5.38%     89.23% |          11      4.23%     93.46% |           9      3.46%     96.92% |           8      3.08%    100.00% (Unspecified)
board.cache_hierarchy.ruby_system.L1Cache_Controller.Inv::total          260                       (Unspecified)
board.cache_hierarchy.ruby_system.L1Cache_Controller.L1_Replacement |         863      3.22%      3.22% |        1638      6.11%      9.33% |        1609      6.00%     15.33% |        1609      6.00%     21.34% |        1610      6.01%     27.34% |        1612      6.01%     33.36% |        1609      6.00%     39.36% |        1612      6.01%     45.38% |        1609      6.00%     51.38% |        1613      6.02%     57.40% |        1611      6.01%     63.41% |        1640      6.12%     69.53% |        1609      6.00%     75.53% |        1640      6.12%     81.65% |        1639      6.12%     87.77% |        1640      6.12%     93.88% |        1639      6.12%    100.00% (Unspecified)
board.cache_hierarchy.ruby_system.L1Cache_Controller.L1_Replacement::total        26802                       (Unspecified)
board.cache_hierarchy.ruby_system.L1Cache_Controller.Fwd_GETX |          42      0.13%      0.13% |        2010      6.11%      6.24% |        2061      6.27%     12.50% |        2060      6.26%     18.77% |        2061      6.27%     25.03% |        2061      6.27%     31.30% |        2061      6.27%     37.56% |        2061      6.27%     43.83% |        2061      6.27%     50.10% |        2061      6.27%     56.36% |        2061      6.27%     62.63% |        2049      6.23%     68.86% |        2050      6.23%     75.09% |        2051      6.24%     81.32% |        2050      6.23%     87.56% |        2050      6.23%     93.79% |        2043      6.21%    100.00% (Unspecified)
board.cache_hierarchy.ruby_system.L1Cache_Controller.Fwd_GETX::total        32893                       (Unspecified)
board.cache_hierarchy.ruby_system.L1Cache_Controller.Fwd_GETS |         405     17.06%     17.06% |        1813     76.37%     93.43% |          11      0.46%     93.89% |          11      0.46%     94.36% |          11      0.46%     94.82% |          11      0.46%     95.28% |          12      0.51%     95.79% |          11      0.46%     96.25% |          11      0.46%     96.71% |          12      0.51%     97.22% |          13      0.55%     97.77% |          12      0.51%     98.27% |           7      0.29%     98.57% |           9      0.38%     98.95% |          10      0.42%     99.37% |           8      0.34%     99.71% |           7      0.29%    100.00% (Unspecified)
board.cache_hierarchy.ruby_system.L1Cache_Controller.Fwd_GETS::total         2374                       (Unspecified)
board.cache_hierarchy.ruby_system.L1Cache_Controller.Data |           0      0.00%      0.00% |           0      0.00%      0.00% |           0      0.00%      0.00% |           0      0.00%      0.00% |           0      0.00%      0.00% |           0      0.00%      0.00% |           0      0.00%      0.00% |           0      0.00%      0.00% |           0      0.00%      0.00% |           0      0.00%      0.00% |           0      0.00%      0.00% |           1     20.00%     20.00% |           1     20.00%     40.00% |           1     20.00%     60.00% |           1     20.00%     80.00% |           1     20.00%    100.00% |           0      0.00%    100.00% (Unspecified)
board.cache_hierarchy.ruby_system.L1Cache_Controller.Data::total            5                       (Unspecified)
board.cache_hierarchy.ruby_system.L1Cache_Controller.Data_Exclusive |          79      3.73%      3.73% |        1813     85.68%     89.41% |          14      0.66%     90.08% |          14      0.66%     90.74% |          14      0.66%     91.40% |          15      0.71%     92.11% |          16      0.76%     92.86% |          15      0.71%     93.57% |          14      0.66%     94.23% |          16      0.76%     94.99% |          16      0.76%     95.75% |          15      0.71%     96.46% |          15      0.71%     97.16% |          15      0.71%     97.87% |          15      0.71%     98.58% |          15      0.71%     99.29% |          15      0.71%    100.00% (Unspecified)
board.cache_hierarchy.ruby_system.L1Cache_Controller.Data_Exclusive::total         2116                       (Unspecified)
board.cache_hierarchy.ruby_system.L1Cache_Controller.DataS_fromL1 |          53      2.23%      2.23% |         273     11.50%     13.73% |        1816     76.50%     90.23% |          17      0.72%     90.94% |          18      0.76%     91.70% |          18      0.76%     92.46% |          16      0.67%     93.13% |          16      0.67%     93.81% |          17      0.72%     94.52% |          16      0.67%     95.20% |          19      0.80%     96.00% |          14      0.59%     96.59% |          15      0.63%     97.22% |          21      0.88%     98.10% |          16      0.67%     98.78% |          13      0.55%     99.33% |          16      0.67%    100.00% (Unspecified)
board.cache_hierarchy.ruby_system.L1Cache_Controller.DataS_fromL1::total         2374                       (Unspecified)
board.cache_hierarchy.ruby_system.L1Cache_Controller.Data_all_Acks |         776      1.18%      1.18% |        2241      3.40%      4.57% |        2493      3.78%      8.35% |        4293      6.51%     14.86% |        4294      6.51%     21.37% |        4301      6.52%     27.89% |        4294      6.51%     34.40% |        4302      6.52%     40.92% |        4295      6.51%     47.44% |        4301      6.52%     53.96% |        4293      6.51%     60.47% |        4356      6.60%     67.07% |        4296      6.51%     73.58% |        4357      6.61%     80.19% |        4357      6.61%     86.79% |        4361      6.61%     93.41% |        4350      6.59%    100.00% (Unspecified)
board.cache_hierarchy.ruby_system.L1Cache_Controller.Data_all_Acks::total        65960                       (Unspecified)
board.cache_hierarchy.ruby_system.L1Cache_Controller.Ack |          32     12.55%     12.55% |           9      3.53%     16.08% |          14      5.49%     21.57% |          13      5.10%     26.67% |          13      5.10%     31.76% |          12      4.71%     36.47% |          14      5.49%     41.96% |          13      5.10%     47.06% |          14      5.49%     52.55% |          13      5.10%     57.65% |          15      5.88%     63.53% |          24      9.41%     72.94% |          13      5.10%     78.04% |          14      5.49%     83.53% |          15      5.88%     89.41% |          15      5.88%     95.29% |          12      4.71%    100.00% (Unspecified)
board.cache_hierarchy.ruby_system.L1Cache_Controller.Ack::total          255                       (Unspecified)
board.cache_hierarchy.ruby_system.L1Cache_Controller.Ack_all |          26     12.09%     12.09% |           9      4.19%     16.28% |          13      6.05%     22.33% |          13      6.05%     28.37% |          13      6.05%     34.42% |          12      5.58%     40.00% |          13      6.05%     46.05% |          12      5.58%     51.63% |          13      6.05%     57.67% |          12      5.58%     63.26% |          14      6.51%     69.77% |          11      5.12%     74.88% |          12      5.58%     80.47% |          11      5.12%     85.58% |          11      5.12%     90.70% |          11      5.12%     95.81% |           9      4.19%    100.00% (Unspecified)
board.cache_hierarchy.ruby_system.L1Cache_Controller.Ack_all::total          215                       (Unspecified)
board.cache_hierarchy.ruby_system.L1Cache_Controller.WB_Ack |         357     61.55%     61.55% |          13      2.24%     63.79% |          14      2.41%     66.21% |          14      2.41%     68.62% |          14      2.41%     71.03% |          14      2.41%     73.45% |          14      2.41%     75.86% |          14      2.41%     78.28% |          14      2.41%     80.69% |          14      2.41%     83.10% |          14      2.41%     85.52% |          14      2.41%     87.93% |          14      2.41%     90.34% |          14      2.41%     92.76% |          14      2.41%     95.17% |          14      2.41%     97.59% |          14      2.41%    100.00% (Unspecified)
board.cache_hierarchy.ruby_system.L1Cache_Controller.WB_Ack::total          580                       (Unspecified)
board.cache_hierarchy.ruby_system.L1Cache_Controller.NP.Load |         128      0.38%      0.38% |        2088      6.21%      6.59% |        2094      6.23%     12.82% |        2094      6.23%     19.05% |        2095      6.23%     25.28% |        2095      6.23%     31.51% |        2094      6.23%     37.74% |        2095      6.23%     43.97% |        2094      6.23%     50.20% |        2096      6.23%     56.44% |        2096      6.23%     62.67% |        2091      6.22%     68.89% |        2094      6.23%     75.12% |        2092      6.22%     81.35% |        2090      6.22%     87.56% |        2091      6.22%     93.78% |        2090      6.22%    100.00% (Unspecified)
board.cache_hierarchy.ruby_system.L1Cache_Controller.NP.Load::total        33617                       (Unspecified)
board.cache_hierarchy.ruby_system.L1Cache_Controller.NP.Ifetch |         340     11.23%     11.23% |         181      5.98%     17.21% |         155      5.12%     22.32% |         157      5.18%     27.51% |         157      5.18%     32.69% |         164      5.42%     38.11% |         158      5.22%     43.33% |         163      5.38%     48.71% |         158      5.22%     53.93% |         162      5.35%     59.28% |         157      5.18%     64.46% |         182      6.01%     70.48% |         157      5.18%     75.66% |         185      6.11%     81.77% |         184      6.08%     87.85% |         185      6.11%     93.96% |         183      6.04%    100.00% (Unspecified)
board.cache_hierarchy.ruby_system.L1Cache_Controller.NP.Ifetch::total         3028                       (Unspecified)
board.cache_hierarchy.ruby_system.L1Cache_Controller.NP.Store |         395     38.20%     38.20% |          62      6.00%     44.20% |          27      2.61%     46.81% |          27      2.61%     49.42% |          27      2.61%     52.03% |          28      2.71%     54.74% |          27      2.61%     57.35% |          28      2.71%     60.06% |          27      2.61%     62.67% |          28      2.71%     65.38% |          27      2.61%     67.99% |          61      5.90%     73.89% |          27      2.61%     76.50% |          60      5.80%     82.30% |          61      5.90%     88.20% |          61      5.90%     94.10% |          61      5.90%    100.00% (Unspecified)
board.cache_hierarchy.ruby_system.L1Cache_Controller.NP.Store::total         1034                       (Unspecified)
board.cache_hierarchy.ruby_system.L1Cache_Controller.NP.Inv |          10    100.00%    100.00% |           0      0.00%    100.00% |           0      0.00%    100.00% |           0      0.00%    100.00% |           0      0.00%    100.00% |           0      0.00%    100.00% |           0      0.00%    100.00% |           0      0.00%    100.00% |           0      0.00%    100.00% |           0      0.00%    100.00% |           0      0.00%    100.00% |           0      0.00%    100.00% |           0      0.00%    100.00% |           0      0.00%    100.00% |           0      0.00%    100.00% |           0      0.00%    100.00% |           0      0.00%    100.00% (Unspecified)
board.cache_hierarchy.ruby_system.L1Cache_Controller.NP.Inv::total           10                       (Unspecified)
board.cache_hierarchy.ruby_system.L1Cache_Controller.I.Load |          40     57.14%     57.14% |           0      0.00%     57.14% |           0      0.00%     57.14% |           0      0.00%     57.14% |           0      0.00%     57.14% |           0      0.00%     57.14% |           0      0.00%     57.14% |           0      0.00%     57.14% |           0      0.00%     57.14% |           0      0.00%     57.14% |           1      1.43%     58.57% |           3      4.29%     62.86% |           0      0.00%     62.86% |           8     11.43%     74.29% |           6      8.57%     82.86% |           7     10.00%     92.86% |           5      7.14%    100.00% (Unspecified)
board.cache_hierarchy.ruby_system.L1Cache_Controller.I.Load::total           70                       (Unspecified)
board.cache_hierarchy.ruby_system.L1Cache_Controller.I.Store |           4      0.01%      0.01% |        1996      6.10%      6.12% |        2047      6.26%     12.37% |        2046      6.26%     18.63% |        2047      6.26%     24.89% |        2047      6.26%     31.15% |        2047      6.26%     37.41% |        2047      6.26%     43.67% |        2047      6.26%     49.93% |        2047      6.26%     56.18% |        2047      6.26%     62.44% |        2049      6.27%     68.71% |        2049      6.27%     74.97% |        2049      6.27%     81.24% |        2048      6.26%     87.50% |        2046      6.26%     93.76% |        2042      6.24%    100.00% (Unspecified)
board.cache_hierarchy.ruby_system.L1Cache_Controller.I.Store::total        32705                       (Unspecified)
board.cache_hierarchy.ruby_system.L1Cache_Controller.I.L1_Replacement |          57     95.00%     95.00% |           1      1.67%     96.67% |           0      0.00%     96.67% |           0      0.00%     96.67% |           0      0.00%     96.67% |           1      1.67%     98.33% |           0      0.00%     98.33% |           0      0.00%     98.33% |           0      0.00%     98.33% |           1      1.67%    100.00% |           0      0.00%    100.00% |           0      0.00%    100.00% |           0      0.00%    100.00% |           0      0.00%    100.00% |           0      0.00%    100.00% |           0      0.00%    100.00% |           0      0.00%    100.00% (Unspecified)
board.cache_hierarchy.ruby_system.L1Cache_Controller.I.L1_Replacement::total           60                       (Unspecified)
board.cache_hierarchy.ruby_system.L1Cache_Controller.S.Load |         237     17.49%     17.49% |          62      4.58%     22.07% |          73      5.39%     27.45% |          66      4.87%     32.32% |          66      4.87%     37.20% |          71      5.24%     42.44% |          62      4.58%     47.01% |          67      4.94%     51.96% |          68      5.02%     56.97% |          70      5.17%     62.14% |          85      6.27%     68.41% |          74      5.46%     73.87% |          82      6.05%     79.93% |          65      4.80%     84.72% |          73      5.39%     90.11% |          66      4.87%     94.98% |          68      5.02%    100.00% (Unspecified)
board.cache_hierarchy.ruby_system.L1Cache_Controller.S.Load::total         1355                       (Unspecified)
board.cache_hierarchy.ruby_system.L1Cache_Controller.S.Ifetch |       20518      3.70%      3.70% |       33365      6.01%      9.71% |       33365      6.01%     15.72% |       33364      6.01%     21.74% |       33375      6.01%     27.75% |       33389      6.02%     33.77% |       33361      6.01%     39.78% |       33379      6.02%     45.79% |       33361      6.01%     51.81% |       33400      6.02%     57.83% |       33380      6.02%     63.84% |       33445      6.03%     69.87% |       33373      6.01%     75.88% |       33467      6.03%     81.91% |       33438      6.03%     87.94% |       33458      6.03%     93.97% |       33468      6.03%    100.00% (Unspecified)
board.cache_hierarchy.ruby_system.L1Cache_Controller.S.Ifetch::total       554906                       (Unspecified)
board.cache_hierarchy.ruby_system.L1Cache_Controller.S.Store |          26     12.38%     12.38% |           9      4.29%     16.67% |          13      6.19%     22.86% |          13      6.19%     29.05% |          13      6.19%     35.24% |          12      5.71%     40.95% |          13      6.19%     47.14% |          12      5.71%     52.86% |          13      6.19%     59.05% |          12      5.71%     64.76% |          14      6.67%     71.43% |          10      4.76%     76.19% |          11      5.24%     81.43% |          10      4.76%     86.19% |          10      4.76%     90.95% |          10      4.76%     95.71% |           9      4.29%    100.00% (Unspecified)
board.cache_hierarchy.ruby_system.L1Cache_Controller.S.Store::total          210                       (Unspecified)
board.cache_hierarchy.ruby_system.L1Cache_Controller.S.Inv |          80     32.26%     32.26% |          10      4.03%     36.29% |           9      3.63%     39.92% |          10      4.03%     43.95% |          10      4.03%     47.98% |          11      4.44%     52.42% |           9      3.63%     56.05% |          10      4.03%     60.08% |          10      4.03%     64.11% |          12      4.84%     68.95% |          13      5.24%     74.19% |          13      5.24%     79.44% |          10      4.03%     83.47% |          14      5.65%     89.11% |          11      4.44%     93.55% |           8      3.23%     96.77% |           8      3.23%    100.00% (Unspecified)
board.cache_hierarchy.ruby_system.L1Cache_Controller.S.Inv::total          248                       (Unspecified)
board.cache_hierarchy.ruby_system.L1Cache_Controller.S.L1_Replacement |         449      1.72%      1.72% |        1624      6.21%      7.92% |        1595      6.10%     14.02% |        1595      6.10%     20.12% |        1596      6.10%     26.22% |        1597      6.10%     32.32% |        1595      6.10%     38.42% |        1598      6.11%     44.53% |        1595      6.10%     50.62% |        1598      6.11%     56.73% |        1597      6.10%     62.84% |        1626      6.22%     69.05% |        1595      6.10%     75.15% |        1626      6.22%     81.36% |        1625      6.21%     87.57% |        1626      6.22%     93.79% |        1625      6.21%    100.00% (Unspecified)
board.cache_hierarchy.ruby_system.L1Cache_Controller.S.L1_Replacement::total        26162                       (Unspecified)
board.cache_hierarchy.ruby_system.L1Cache_Controller.E.Load |        1591     91.65%     91.65% |          12      0.69%     92.34% |           8      0.46%     92.80% |           8      0.46%     93.26% |           8      0.46%     93.72% |           8      0.46%     94.18% |          12      0.69%     94.87% |           8      0.46%     95.33% |           8      0.46%     95.79% |           8      0.46%     96.26% |           8      0.46%     96.72% |           9      0.52%     97.24% |           9      0.52%     97.75% |           9      0.52%     98.27% |          10      0.58%     98.85% |          10      0.58%     99.42% |          10      0.58%    100.00% (Unspecified)
board.cache_hierarchy.ruby_system.L1Cache_Controller.E.Load::total         1736                       (Unspecified)
board.cache_hierarchy.ruby_system.L1Cache_Controller.E.Store |          24     14.04%     14.04% |           8      4.68%     18.71% |           9      5.26%     23.98% |           9      5.26%     29.24% |           9      5.26%     34.50% |           9      5.26%     39.77% |           9      5.26%     45.03% |           9      5.26%     50.29% |           9      5.26%     55.56% |           9      5.26%     60.82% |           9      5.26%     66.08% |           9      5.26%     71.35% |          10      5.85%     77.19% |           9      5.26%     82.46% |          10      5.85%     88.30% |          10      5.85%     94.15% |          10      5.85%    100.00% (Unspecified)
board.cache_hierarchy.ruby_system.L1Cache_Controller.E.Store::total          171                       (Unspecified)
board.cache_hierarchy.ruby_system.L1Cache_Controller.E.L1_Replacement |          10     38.46%     38.46% |           1      3.85%     42.31% |           1      3.85%     46.15% |           1      3.85%     50.00% |           1      3.85%     53.85% |           1      3.85%     57.69% |           1      3.85%     61.54% |           1      3.85%     65.38% |           1      3.85%     69.23% |           1      3.85%     73.08% |           1      3.85%     76.92% |           1      3.85%     80.77% |           1      3.85%     84.62% |           1      3.85%     88.46% |           1      3.85%     92.31% |           1      3.85%     96.15% |           1      3.85%    100.00% (Unspecified)
board.cache_hierarchy.ruby_system.L1Cache_Controller.E.L1_Replacement::total           26                       (Unspecified)
board.cache_hierarchy.ruby_system.L1Cache_Controller.E.Fwd_GETS |           6      0.33%      0.33% |        1801     98.58%     98.91% |           1      0.05%     98.96% |           1      0.05%     99.01% |           1      0.05%     99.07% |           1      0.05%     99.12% |           2      0.11%     99.23% |           1      0.05%     99.29% |           1      0.05%     99.34% |           2      0.11%     99.45% |           2      0.11%     99.56% |           2      0.11%     99.67% |           1      0.05%     99.73% |           2      0.11%     99.84% |           1      0.05%     99.89% |           1      0.05%     99.95% |           1      0.05%    100.00% (Unspecified)
board.cache_hierarchy.ruby_system.L1Cache_Controller.E.Fwd_GETS::total         1827                       (Unspecified)
board.cache_hierarchy.ruby_system.L1Cache_Controller.M.Load |       11403      5.32%      5.32% |       12722      5.94%     11.26% |       12672      5.91%     17.17% |       12668      5.91%     23.09% |       12673      5.91%     29.00% |       12687      5.92%     34.92% |       12669      5.91%     40.84% |       12686      5.92%     46.76% |       12671      5.91%     52.67% |       12683      5.92%     58.59% |       12650      5.90%     64.49% |       12679      5.92%     70.41% |       12662      5.91%     76.32% |       12689      5.92%     82.24% |       12676      5.92%     88.16% |       12674      5.92%     94.08% |       12693      5.92%    100.00% (Unspecified)
board.cache_hierarchy.ruby_system.L1Cache_Controller.M.Load::total       214257                       (Unspecified)
board.cache_hierarchy.ruby_system.L1Cache_Controller.M.Store |       22416      9.87%      9.87% |       13014      5.73%     15.59% |       12697      5.59%     21.18% |       12698      5.59%     26.77% |       12697      5.59%     32.36% |       12697      5.59%     37.95% |       12697      5.59%     43.54% |       12697      5.59%     49.13% |       12697      5.59%     54.72% |       12697      5.59%     60.31% |       12696      5.59%     65.89% |       12956      5.70%     71.60% |       12696      5.59%     77.18% |       12957      5.70%     82.89% |       12956      5.70%     88.59% |       12958      5.70%     94.29% |       12963      5.71%    100.00% (Unspecified)
board.cache_hierarchy.ruby_system.L1Cache_Controller.M.Store::total       227189                       (Unspecified)
board.cache_hierarchy.ruby_system.L1Cache_Controller.M.L1_Replacement |         347     62.64%     62.64% |          12      2.17%     64.80% |          13      2.35%     67.15% |          13      2.35%     69.49% |          13      2.35%     71.84% |          13      2.35%     74.19% |          13      2.35%     76.53% |          13      2.35%     78.88% |          13      2.35%     81.23% |          13      2.35%     83.57% |          13      2.35%     85.92% |          13      2.35%     88.27% |          13      2.35%     90.61% |          13      2.35%     92.96% |          13      2.35%     95.31% |          13      2.35%     97.65% |          13      2.35%    100.00% (Unspecified)
board.cache_hierarchy.ruby_system.L1Cache_Controller.M.L1_Replacement::total          554                       (Unspecified)
board.cache_hierarchy.ruby_system.L1Cache_Controller.M.Fwd_GETX |          42      0.13%      0.13% |        2010      6.11%      6.24% |        2061      6.27%     12.50% |        2060      6.26%     18.77% |        2061      6.27%     25.03% |        2061      6.27%     31.30% |        2061      6.27%     37.56% |        2061      6.27%     43.83% |        2061      6.27%     50.10% |        2061      6.27%     56.36% |        2061      6.27%     62.63% |        2049      6.23%     68.86% |        2050      6.23%     75.09% |        2051      6.24%     81.32% |        2050      6.23%     87.56% |        2050      6.23%     93.79% |        2043      6.21%    100.00% (Unspecified)
board.cache_hierarchy.ruby_system.L1Cache_Controller.M.Fwd_GETX::total        32893                       (Unspecified)
board.cache_hierarchy.ruby_system.L1Cache_Controller.M.Fwd_GETS |         399     72.94%     72.94% |          12      2.19%     75.14% |          10      1.83%     76.97% |          10      1.83%     78.79% |          10      1.83%     80.62% |          10      1.83%     82.45% |          10      1.83%     84.28% |          10      1.83%     86.11% |          10      1.83%     87.93% |          10      1.83%     89.76% |          11      2.01%     91.77% |          10      1.83%     93.60% |           6      1.10%     94.70% |           7      1.28%     95.98% |           9      1.65%     97.62% |           7      1.28%     98.90% |           6      1.10%    100.00% (Unspecified)
board.cache_hierarchy.ruby_system.L1Cache_Controller.M.Fwd_GETS::total          547                       (Unspecified)
board.cache_hierarchy.ruby_system.L1Cache_Controller.IS.Inv |           1     50.00%     50.00% |           0      0.00%     50.00% |           0      0.00%     50.00% |           0      0.00%     50.00% |           0      0.00%     50.00% |           0      0.00%     50.00% |           0      0.00%     50.00% |           0      0.00%     50.00% |           0      0.00%     50.00% |           0      0.00%     50.00% |           0      0.00%     50.00% |           0      0.00%     50.00% |           0      0.00%     50.00% |           0      0.00%     50.00% |           0      0.00%     50.00% |           1     50.00%    100.00% |           0      0.00%    100.00% (Unspecified)
board.cache_hierarchy.ruby_system.L1Cache_Controller.IS.Inv::total            2                       (Unspecified)
board.cache_hierarchy.ruby_system.L1Cache_Controller.IS.Data_Exclusive |          79      3.73%      3.73% |        1813     85.68%     89.41% |          14      0.66%     90.08% |          14      0.66%     90.74% |          14      0.66%     91.40% |          15      0.71%     92.11% |          16      0.76%     92.86% |          15      0.71%     93.57% |          14      0.66%     94.23% |          16      0.76%     94.99% |          16      0.76%     95.75% |          15      0.71%     96.46% |          15      0.71%     97.16% |          15      0.71%     97.87% |          15      0.71%     98.58% |          15      0.71%     99.29% |          15      0.71%    100.00% (Unspecified)
board.cache_hierarchy.ruby_system.L1Cache_Controller.IS.Data_Exclusive::total         2116                       (Unspecified)
board.cache_hierarchy.ruby_system.L1Cache_Controller.IS.DataS_fromL1 |          53      2.23%      2.23% |         273     11.50%     13.73% |        1816     76.50%     90.23% |          17      0.72%     90.94% |          18      0.76%     91.70% |          18      0.76%     92.46% |          16      0.67%     93.13% |          16      0.67%     93.81% |          17      0.72%     94.52% |          16      0.67%     95.20% |          19      0.80%     96.00% |          14      0.59%     96.59% |          15      0.63%     97.22% |          21      0.88%     98.10% |          16      0.67%     98.78% |          13      0.55%     99.33% |          16      0.67%    100.00% (Unspecified)
board.cache_hierarchy.ruby_system.L1Cache_Controller.IS.DataS_fromL1::total         2374                       (Unspecified)
board.cache_hierarchy.ruby_system.L1Cache_Controller.IS.Data_all_Acks |         376      1.17%      1.17% |         183      0.57%      1.73% |         419      1.30%      3.04% |        2220      6.89%      9.92% |        2220      6.89%     16.81% |        2226      6.91%     23.72% |        2220      6.89%     30.61% |        2227      6.91%     37.52% |        2221      6.89%     44.41% |        2226      6.91%     51.32% |        2219      6.89%     58.21% |        2247      6.97%     65.18% |        2221      6.89%     72.07% |        2249      6.98%     79.05% |        2249      6.98%     86.03% |        2254      6.99%     93.03% |        2247      6.97%    100.00% (Unspecified)
board.cache_hierarchy.ruby_system.L1Cache_Controller.IS.Data_all_Acks::total        32224                       (Unspecified)
board.cache_hierarchy.ruby_system.L1Cache_Controller.IM.Data |           0      0.00%      0.00% |           0      0.00%      0.00% |           0      0.00%      0.00% |           0      0.00%      0.00% |           0      0.00%      0.00% |           0      0.00%      0.00% |           0      0.00%      0.00% |           0      0.00%      0.00% |           0      0.00%      0.00% |           0      0.00%      0.00% |           0      0.00%      0.00% |           1     20.00%     20.00% |           1     20.00%     40.00% |           1     20.00%     60.00% |           1     20.00%     80.00% |           1     20.00%    100.00% |           0      0.00%    100.00% (Unspecified)
board.cache_hierarchy.ruby_system.L1Cache_Controller.IM.Data::total            5                       (Unspecified)
board.cache_hierarchy.ruby_system.L1Cache_Controller.IM.Data_all_Acks |         399      1.18%      1.18% |        2058      6.10%      7.28% |        2074      6.15%     13.43% |        2073      6.15%     19.58% |        2074      6.15%     25.72% |        2075      6.15%     31.88% |        2074      6.15%     38.02% |        2075      6.15%     44.18% |        2074      6.15%     50.32% |        2075      6.15%     56.47% |        2074      6.15%     62.62% |        2109      6.25%     68.87% |        2075      6.15%     75.03% |        2108      6.25%     81.27% |        2108      6.25%     87.52% |        2106      6.24%     93.77% |        2103      6.23%    100.00% (Unspecified)
board.cache_hierarchy.ruby_system.L1Cache_Controller.IM.Data_all_Acks::total        33734                       (Unspecified)
board.cache_hierarchy.ruby_system.L1Cache_Controller.SM.Ack |          32     12.55%     12.55% |           9      3.53%     16.08% |          14      5.49%     21.57% |          13      5.10%     26.67% |          13      5.10%     31.76% |          12      4.71%     36.47% |          14      5.49%     41.96% |          13      5.10%     47.06% |          14      5.49%     52.55% |          13      5.10%     57.65% |          15      5.88%     63.53% |          24      9.41%     72.94% |          13      5.10%     78.04% |          14      5.49%     83.53% |          15      5.88%     89.41% |          15      5.88%     95.29% |          12      4.71%    100.00% (Unspecified)
board.cache_hierarchy.ruby_system.L1Cache_Controller.SM.Ack::total          255                       (Unspecified)
board.cache_hierarchy.ruby_system.L1Cache_Controller.SM.Ack_all |          26     12.09%     12.09% |           9      4.19%     16.28% |          13      6.05%     22.33% |          13      6.05%     28.37% |          13      6.05%     34.42% |          12      5.58%     40.00% |          13      6.05%     46.05% |          12      5.58%     51.63% |          13      6.05%     57.67% |          12      5.58%     63.26% |          14      6.51%     69.77% |          11      5.12%     74.88% |          12      5.58%     80.47% |          11      5.12%     85.58% |          11      5.12%     90.70% |          11      5.12%     95.81% |           9      4.19%    100.00% (Unspecified)
board.cache_hierarchy.ruby_system.L1Cache_Controller.SM.Ack_all::total          215                       (Unspecified)
board.cache_hierarchy.ruby_system.L1Cache_Controller.IS_I.Data_all_Acks |           1     50.00%     50.00% |           0      0.00%     50.00% |           0      0.00%     50.00% |           0      0.00%     50.00% |           0      0.00%     50.00% |           0      0.00%     50.00% |           0      0.00%     50.00% |           0      0.00%     50.00% |           0      0.00%     50.00% |           0      0.00%     50.00% |           0      0.00%     50.00% |           0      0.00%     50.00% |           0      0.00%     50.00% |           0      0.00%     50.00% |           0      0.00%     50.00% |           1     50.00%    100.00% |           0      0.00%    100.00% (Unspecified)
board.cache_hierarchy.ruby_system.L1Cache_Controller.IS_I.Data_all_Acks::total            2                       (Unspecified)
board.cache_hierarchy.ruby_system.L1Cache_Controller.M_I.WB_Ack |         357     61.55%     61.55% |          13      2.24%     63.79% |          14      2.41%     66.21% |          14      2.41%     68.62% |          14      2.41%     71.03% |          14      2.41%     73.45% |          14      2.41%     75.86% |          14      2.41%     78.28% |          14      2.41%     80.69% |          14      2.41%     83.10% |          14      2.41%     85.52% |          14      2.41%     87.93% |          14      2.41%     90.34% |          14      2.41%     92.76% |          14      2.41%     95.17% |          14      2.41%     97.59% |          14      2.41%    100.00% (Unspecified)
board.cache_hierarchy.ruby_system.L1Cache_Controller.M_I.WB_Ack::total          580                       (Unspecified)
board.cache_hierarchy.ruby_system.L2Cache_Controller.L1_GET_INSTR |         141      4.66%      4.66% |         171      5.65%     10.30% |         224      7.40%     17.70% |         252      8.32%     26.02% |         217      7.16%     33.18% |         179      5.91%     39.09% |         207      6.83%     45.92% |         172      5.68%     51.60% |         221      7.30%     58.90% |         204      6.73%     65.63% |         193      6.37%     72.00% |         192      6.34%     78.34% |         200      6.60%     84.95% |         189      6.24%     91.19% |         153      5.05%     96.24% |         114      3.76%    100.00% (Unspecified)
board.cache_hierarchy.ruby_system.L2Cache_Controller.L1_GET_INSTR::total         3029                       (Unspecified)
board.cache_hierarchy.ruby_system.L2Cache_Controller.L1_GETS |        2068      6.14%      6.14% |        2160      6.41%     12.55% |        2132      6.33%     18.88% |        2138      6.35%     25.22% |        2118      6.29%     31.51% |        2121      6.30%     37.80% |        2112      6.27%     44.07% |        2079      6.17%     50.24% |        2076      6.16%     56.40% |        2126      6.31%     62.71% |        2127      6.31%     69.03% |        2053      6.09%     75.12% |        2084      6.19%     81.30% |        2079      6.17%     87.48% |        2119      6.29%     93.76% |        2101      6.24%    100.00% (Unspecified)
board.cache_hierarchy.ruby_system.L2Cache_Controller.L1_GETS::total        33693                       (Unspecified)
board.cache_hierarchy.ruby_system.L2Cache_Controller.L1_GETX |      468440     99.79%     99.79% |          56      0.01%     99.80% |          58      0.01%     99.82% |          59      0.01%     99.83% |          96      0.02%     99.85% |         116      0.02%     99.87% |          78      0.02%     99.89% |          84      0.02%     99.91% |          84      0.02%     99.93% |          51      0.01%     99.94% |          59      0.01%     99.95% |          36      0.01%     99.96% |          68      0.01%     99.97% |          67      0.01%     99.99% |          35      0.01%     99.99% |          34      0.01%    100.00% (Unspecified)
board.cache_hierarchy.ruby_system.L2Cache_Controller.L1_GETX::total       469421                       (Unspecified)
board.cache_hierarchy.ruby_system.L2Cache_Controller.L1_UPGRADE |           1      0.47%      0.47% |          57     26.89%     27.36% |          25     11.79%     39.15% |          12      5.66%     44.81% |          12      5.66%     50.47% |          33     15.57%     66.04% |           6      2.83%     68.87% |           5      2.36%     71.23% |           2      0.94%     72.17% |           2      0.94%     73.11% |          24     11.32%     84.43% |           0      0.00%     84.43% |          12      5.66%     90.09% |           3      1.42%     91.51% |          17      8.02%     99.53% |           1      0.47%    100.00% (Unspecified)
board.cache_hierarchy.ruby_system.L2Cache_Controller.L1_UPGRADE::total          212                       (Unspecified)
board.cache_hierarchy.ruby_system.L2Cache_Controller.L1_PUTX |          24      4.14%      4.14% |          49      8.45%     12.59% |          31      5.34%     17.93% |          47      8.10%     26.03% |          62     10.69%     36.72% |          63     10.86%     47.59% |          46      7.93%     55.52% |          47      8.10%     63.62% |          47      8.10%     71.72% |          31      5.34%     77.07% |          31      5.34%     82.41% |          11      1.90%     84.31% |          29      5.00%     89.31% |          39      6.72%     96.03% |          15      2.59%     98.62% |           8      1.38%    100.00% (Unspecified)
board.cache_hierarchy.ruby_system.L2Cache_Controller.L1_PUTX::total          580                       (Unspecified)
board.cache_hierarchy.ruby_system.L2Cache_Controller.Mem_Data |          65      5.27%      5.27% |          78      6.32%     11.59% |          83      6.73%     18.31% |          85      6.89%     25.20% |          99      8.02%     33.23% |         100      8.10%     41.33% |          78      6.32%     47.65% |          75      6.08%     53.73% |          79      6.40%     60.13% |          83      6.73%     66.86% |          66      5.35%     72.20% |          47      3.81%     76.01% |          70      5.67%     81.69% |          83      6.73%     88.41% |          70      5.67%     94.08% |          73      5.92%    100.00% (Unspecified)
board.cache_hierarchy.ruby_system.L2Cache_Controller.Mem_Data::total         1234                       (Unspecified)
board.cache_hierarchy.ruby_system.L2Cache_Controller.WB_Data |          23      4.20%      4.20% |          86     15.72%     19.93% |          58     10.60%     30.53% |          28      5.12%     35.65% |          28      5.12%     40.77% |          59     10.79%     51.55% |          21      3.84%     55.39% |          21      3.84%     59.23% |          19      3.47%     62.71% |          38      6.95%     69.65% |          43      7.86%     77.51% |          19      3.47%     80.99% |          27      4.94%     85.92% |          18      3.29%     89.21% |          34      6.22%     95.43% |          25      4.57%    100.00% (Unspecified)
board.cache_hierarchy.ruby_system.L2Cache_Controller.WB_Data::total          547                       (Unspecified)
board.cache_hierarchy.ruby_system.L2Cache_Controller.WB_Data_clean |         108      5.91%      5.91% |         114      6.24%     12.15% |         114      6.24%     18.39% |         130      7.12%     25.51% |         114      6.24%     31.75% |         118      6.46%     38.20% |         116      6.35%     44.55% |         113      6.19%     50.74% |         113      6.19%     56.92% |         112      6.13%     63.05% |         114      6.24%     69.29% |         109      5.97%     75.26% |         114      6.24%     81.50% |         116      6.35%     87.85% |         115      6.29%     94.14% |         107      5.86%    100.00% (Unspecified)
board.cache_hierarchy.ruby_system.L2Cache_Controller.WB_Data_clean::total         1827                       (Unspecified)
board.cache_hierarchy.ruby_system.L2Cache_Controller.Unblock |         131      5.52%      5.52% |         200      8.42%     13.94% |         172      7.25%     21.19% |         158      6.66%     27.84% |         142      5.98%     33.82% |         177      7.46%     41.28% |         137      5.77%     47.05% |         134      5.64%     52.70% |         132      5.56%     58.26% |         150      6.32%     64.57% |         157      6.61%     71.19% |         128      5.39%     76.58% |         141      5.94%     82.52% |         134      5.64%     88.16% |         149      6.28%     94.44% |         132      5.56%    100.00% (Unspecified)
board.cache_hierarchy.ruby_system.L2Cache_Controller.Unblock::total         2374                       (Unspecified)
board.cache_hierarchy.ruby_system.L2Cache_Controller.Exclusive_Unblock |       32884     91.18%     91.18% |         260      0.72%     91.90% |         215      0.60%     92.50% |         218      0.60%     93.10% |         260      0.72%     93.82% |         289      0.80%     94.62% |         223      0.62%     95.24% |         222      0.62%     95.86% |         220      0.61%     96.47% |         186      0.52%     96.98% |         201      0.56%     97.54% |         149      0.41%     97.95% |         200      0.55%     98.51% |         193      0.54%     99.04% |         184      0.51%     99.55% |         161      0.45%    100.00% (Unspecified)
board.cache_hierarchy.ruby_system.L2Cache_Controller.Exclusive_Unblock::total        36065                       (Unspecified)
board.cache_hierarchy.ruby_system.L2Cache_Controller.NP.L1_GET_INSTR |          25      6.61%      6.61% |          25      6.61%     13.23% |          26      6.88%     20.11% |          28      7.41%     27.51% |          26      6.88%     34.39% |          25      6.61%     41.01% |          19      5.03%     46.03% |          18      4.76%     50.79% |          21      5.56%     56.35% |          25      6.61%     62.96% |          24      6.35%     69.31% |          21      5.56%     74.87% |          27      7.14%     82.01% |          26      6.88%     88.89% |          20      5.29%     94.18% |          22      5.82%    100.00% (Unspecified)
board.cache_hierarchy.ruby_system.L2Cache_Controller.NP.L1_GET_INSTR::total          378                       (Unspecified)
board.cache_hierarchy.ruby_system.L2Cache_Controller.NP.L1_GETS |           0      0.00%      0.00% |           2      2.63%      2.63% |           0      0.00%      2.63% |           0      0.00%      2.63% |          16     21.05%     23.68% |           1      1.32%     25.00% |           2      2.63%     27.63% |           0      0.00%     27.63% |           1      1.32%     28.95% |          18     23.68%     52.63% |           2      2.63%     55.26% |           1      1.32%     56.58% |           1      1.32%     57.89% |           0      0.00%     57.89% |          15     19.74%     77.63% |          17     22.37%    100.00% (Unspecified)
board.cache_hierarchy.ruby_system.L2Cache_Controller.NP.L1_GETS::total           76                       (Unspecified)
board.cache_hierarchy.ruby_system.L2Cache_Controller.NP.L1_GETX |          40      5.13%      5.13% |          51      6.54%     11.67% |          57      7.31%     18.97% |          57      7.31%     26.28% |          57      7.31%     33.59% |          74      9.49%     43.08% |          57      7.31%     50.38% |          57      7.31%     57.69% |          57      7.31%     65.00% |          40      5.13%     70.13% |          40      5.13%     75.26% |          25      3.21%     78.46% |          42      5.38%     83.85% |          57      7.31%     91.15% |          35      4.49%     95.64% |          34      4.36%    100.00% (Unspecified)
board.cache_hierarchy.ruby_system.L2Cache_Controller.NP.L1_GETX::total          780                       (Unspecified)
board.cache_hierarchy.ruby_system.L2Cache_Controller.SS.L1_GET_INSTR |         116      4.38%      4.38% |         146      5.51%      9.89% |         197      7.43%     17.32% |         224      8.45%     25.77% |         191      7.21%     32.98% |         154      5.81%     38.79% |         188      7.09%     45.89% |         154      5.81%     51.70% |         200      7.55%     59.25% |         179      6.75%     66.00% |         169      6.38%     72.38% |         171      6.45%     78.83% |         173      6.53%     85.36% |         163      6.15%     91.51% |         133      5.02%     96.53% |          92      3.47%    100.00% (Unspecified)
board.cache_hierarchy.ruby_system.L2Cache_Controller.SS.L1_GET_INSTR::total         2650                       (Unspecified)
board.cache_hierarchy.ruby_system.L2Cache_Controller.SS.L1_GETS |        1812      6.21%      6.21% |        1812      6.21%     12.41% |        1828      6.26%     18.67% |        1833      6.28%     24.95% |        1824      6.25%     31.20% |        1804      6.18%     37.38% |        1836      6.29%     43.67% |        1812      6.21%     49.87% |        1810      6.20%     56.07% |        1843      6.31%     62.38% |        1845      6.32%     68.70% |        1812      6.21%     74.91% |        1823      6.24%     81.15% |        1822      6.24%     87.39% |        1838      6.30%     93.69% |        1843      6.31%    100.00% (Unspecified)
board.cache_hierarchy.ruby_system.L2Cache_Controller.SS.L1_GETS::total        29197                       (Unspecified)
board.cache_hierarchy.ruby_system.L2Cache_Controller.SS.L1_GETX |           0      0.00%      0.00% |           0      0.00%      0.00% |           0      0.00%      0.00% |           0      0.00%      0.00% |           0      0.00%      0.00% |           0      0.00%      0.00% |           0      0.00%      0.00% |           0      0.00%      0.00% |           0      0.00%      0.00% |           0      0.00%      0.00% |           5    100.00%    100.00% |           0      0.00%    100.00% |           0      0.00%    100.00% |           0      0.00%    100.00% |           0      0.00%    100.00% |           0      0.00%    100.00% (Unspecified)
board.cache_hierarchy.ruby_system.L2Cache_Controller.SS.L1_GETX::total            5                       (Unspecified)
board.cache_hierarchy.ruby_system.L2Cache_Controller.SS.L1_UPGRADE |           1      0.48%      0.48% |          57     27.14%     27.62% |          25     11.90%     39.52% |          12      5.71%     45.24% |          12      5.71%     50.95% |          33     15.71%     66.67% |           6      2.86%     69.52% |           5      2.38%     71.90% |           2      0.95%     72.86% |           2      0.95%     73.81% |          22     10.48%     84.29% |           0      0.00%     84.29% |          12      5.71%     90.00% |           3      1.43%     91.43% |          17      8.10%     99.52% |           1      0.48%    100.00% (Unspecified)
board.cache_hierarchy.ruby_system.L2Cache_Controller.SS.L1_UPGRADE::total          210                       (Unspecified)
board.cache_hierarchy.ruby_system.L2Cache_Controller.M.L1_GETS |         125      6.13%      6.13% |         145      7.11%     13.24% |         132      6.47%     19.71% |         147      7.21%     26.91% |         136      6.67%     33.58% |         139      6.81%     40.39% |         137      6.72%     47.11% |         133      6.52%     53.63% |         133      6.52%     60.15% |         115      5.64%     65.78% |         118      5.78%     71.57% |         112      5.49%     77.06% |         119      5.83%     82.89% |         123      6.03%     88.92% |         117      5.74%     94.66% |         109      5.34%    100.00% (Unspecified)
board.cache_hierarchy.ruby_system.L2Cache_Controller.M.L1_GETS::total         2040                       (Unspecified)
board.cache_hierarchy.ruby_system.L2Cache_Controller.M.L1_GETX |           2      3.28%      3.28% |           1      1.64%      4.92% |           1      1.64%      6.56% |           2      3.28%      9.84% |          20     32.79%     42.62% |          16     26.23%     68.85% |           1      1.64%     70.49% |           1      1.64%     72.13% |           1      1.64%     73.77% |           1      1.64%     75.41% |           1      1.64%     77.05% |           1      1.64%     78.69% |          13     21.31%    100.00% |           0      0.00%    100.00% |           0      0.00%    100.00% |           0      0.00%    100.00% (Unspecified)
board.cache_hierarchy.ruby_system.L2Cache_Controller.M.L1_GETX::total           61                       (Unspecified)
board.cache_hierarchy.ruby_system.L2Cache_Controller.MT.L1_GETS |         131      5.52%      5.52% |         200      8.42%     13.94% |         172      7.25%     21.19% |         158      6.66%     27.84% |         142      5.98%     33.82% |         177      7.46%     41.28% |         137      5.77%     47.05% |         134      5.64%     52.70% |         132      5.56%     58.26% |         150      6.32%     64.57% |         157      6.61%     71.19% |         128      5.39%     76.58% |         141      5.94%     82.52% |         134      5.64%     88.16% |         149      6.28%     94.44% |         132      5.56%    100.00% (Unspecified)
board.cache_hierarchy.ruby_system.L2Cache_Controller.MT.L1_GETS::total         2374                       (Unspecified)
board.cache_hierarchy.ruby_system.L2Cache_Controller.MT.L1_GETX |       32716     99.46%     99.46% |           4      0.01%     99.47% |           0      0.00%     99.47% |           0      0.00%     99.47% |          19      0.06%     99.53% |          26      0.08%     99.61% |          20      0.06%     99.67% |          26      0.08%     99.75% |          26      0.08%     99.83% |          10      0.03%     99.86% |          13      0.04%     99.90% |          10      0.03%     99.93% |          13      0.04%     99.97% |          10      0.03%    100.00% |           0      0.00%    100.00% |           0      0.00%    100.00% (Unspecified)
board.cache_hierarchy.ruby_system.L2Cache_Controller.MT.L1_GETX::total        32893                       (Unspecified)
board.cache_hierarchy.ruby_system.L2Cache_Controller.MT.L1_PUTX |          24      4.14%      4.14% |          49      8.45%     12.59% |          31      5.34%     17.93% |          47      8.10%     26.03% |          62     10.69%     36.72% |          63     10.86%     47.59% |          46      7.93%     55.52% |          47      8.10%     63.62% |          47      8.10%     71.72% |          31      5.34%     77.07% |          31      5.34%     82.41% |          11      1.90%     84.31% |          29      5.00%     89.31% |          39      6.72%     96.03% |          15      2.59%     98.62% |           8      1.38%    100.00% (Unspecified)
board.cache_hierarchy.ruby_system.L2Cache_Controller.MT.L1_PUTX::total          580                       (Unspecified)
board.cache_hierarchy.ruby_system.L2Cache_Controller.ISS.Mem_Data |           0      0.00%      0.00% |           2      2.63%      2.63% |           0      0.00%      2.63% |           0      0.00%      2.63% |          16     21.05%     23.68% |           1      1.32%     25.00% |           2      2.63%     27.63% |           0      0.00%     27.63% |           1      1.32%     28.95% |          18     23.68%     52.63% |           2      2.63%     55.26% |           1      1.32%     56.58% |           1      1.32%     57.89% |           0      0.00%     57.89% |          15     19.74%     77.63% |          17     22.37%    100.00% (Unspecified)
board.cache_hierarchy.ruby_system.L2Cache_Controller.ISS.Mem_Data::total           76                       (Unspecified)
board.cache_hierarchy.ruby_system.L2Cache_Controller.IS.L1_GET_INSTR |           0      0.00%      0.00% |           0      0.00%      0.00% |           1    100.00%    100.00% |           0      0.00%    100.00% |           0      0.00%    100.00% |           0      0.00%    100.00% |           0      0.00%    100.00% |           0      0.00%    100.00% |           0      0.00%    100.00% |           0      0.00%    100.00% |           0      0.00%    100.00% |           0      0.00%    100.00% |           0      0.00%    100.00% |           0      0.00%    100.00% |           0      0.00%    100.00% |           0      0.00%    100.00% (Unspecified)
board.cache_hierarchy.ruby_system.L2Cache_Controller.IS.L1_GET_INSTR::total            1                       (Unspecified)
board.cache_hierarchy.ruby_system.L2Cache_Controller.IS.Mem_Data |          25      6.61%      6.61% |          25      6.61%     13.23% |          26      6.88%     20.11% |          28      7.41%     27.51% |          26      6.88%     34.39% |          25      6.61%     41.01% |          19      5.03%     46.03% |          18      4.76%     50.79% |          21      5.56%     56.35% |          25      6.61%     62.96% |          24      6.35%     69.31% |          21      5.56%     74.87% |          27      7.14%     82.01% |          26      6.88%     88.89% |          20      5.29%     94.18% |          22      5.82%    100.00% (Unspecified)
board.cache_hierarchy.ruby_system.L2Cache_Controller.IS.Mem_Data::total          378                       (Unspecified)
board.cache_hierarchy.ruby_system.L2Cache_Controller.IM.Mem_Data |          40      5.13%      5.13% |          51      6.54%     11.67% |          57      7.31%     18.97% |          57      7.31%     26.28% |          57      7.31%     33.59% |          74      9.49%     43.08% |          57      7.31%     50.38% |          57      7.31%     57.69% |          57      7.31%     65.00% |          40      5.13%     70.13% |          40      5.13%     75.26% |          25      3.21%     78.46% |          42      5.38%     83.85% |          57      7.31%     91.15% |          35      4.49%     95.64% |          34      4.36%    100.00% (Unspecified)
board.cache_hierarchy.ruby_system.L2Cache_Controller.IM.Mem_Data::total          780                       (Unspecified)
board.cache_hierarchy.ruby_system.L2Cache_Controller.SS_MB.L1_GETS |           0      0.00%      0.00% |           0      0.00%      0.00% |           0      0.00%      0.00% |           0      0.00%      0.00% |           0      0.00%      0.00% |           0      0.00%      0.00% |           0      0.00%      0.00% |           0      0.00%      0.00% |           0      0.00%      0.00% |           0      0.00%      0.00% |           1    100.00%    100.00% |           0      0.00%    100.00% |           0      0.00%    100.00% |           0      0.00%    100.00% |           0      0.00%    100.00% |           0      0.00%    100.00% (Unspecified)
board.cache_hierarchy.ruby_system.L2Cache_Controller.SS_MB.L1_GETS::total            1                       (Unspecified)
board.cache_hierarchy.ruby_system.L2Cache_Controller.SS_MB.Exclusive_Unblock |           1      0.47%      0.47% |          57     26.51%     26.98% |          25     11.63%     38.60% |          12      5.58%     44.19% |          12      5.58%     49.77% |          33     15.35%     65.12% |           6      2.79%     67.91% |           5      2.33%     70.23% |           2      0.93%     71.16% |           2      0.93%     72.09% |          27     12.56%     84.65% |           0      0.00%     84.65% |          12      5.58%     90.23% |           3      1.40%     91.63% |          17      7.91%     99.53% |           1      0.47%    100.00% (Unspecified)
board.cache_hierarchy.ruby_system.L2Cache_Controller.SS_MB.Exclusive_Unblock::total          215                       (Unspecified)
board.cache_hierarchy.ruby_system.L2Cache_Controller.MT_MB.L1_GETX |      435682    100.00%    100.00% |           0      0.00%    100.00% |           0      0.00%    100.00% |           0      0.00%    100.00% |           0      0.00%    100.00% |           0      0.00%    100.00% |           0      0.00%    100.00% |           0      0.00%    100.00% |           0      0.00%    100.00% |           0      0.00%    100.00% |           0      0.00%    100.00% |           0      0.00%    100.00% |           0      0.00%    100.00% |           0      0.00%    100.00% |           0      0.00%    100.00% |           0      0.00%    100.00% (Unspecified)
board.cache_hierarchy.ruby_system.L2Cache_Controller.MT_MB.L1_GETX::total       435682                       (Unspecified)
board.cache_hierarchy.ruby_system.L2Cache_Controller.MT_MB.Exclusive_Unblock |       32883     91.72%     91.72% |         203      0.57%     92.29% |         190      0.53%     92.82% |         206      0.57%     93.39% |         248      0.69%     94.09% |         256      0.71%     94.80% |         217      0.61%     95.41% |         217      0.61%     96.01% |         218      0.61%     96.62% |         184      0.51%     97.13% |         174      0.49%     97.62% |         149      0.42%     98.03% |         188      0.52%     98.56% |         190      0.53%     99.09% |         167      0.47%     99.55% |         160      0.45%    100.00% (Unspecified)
board.cache_hierarchy.ruby_system.L2Cache_Controller.MT_MB.Exclusive_Unblock::total        35850                       (Unspecified)
board.cache_hierarchy.ruby_system.L2Cache_Controller.MT_IIB.L1_GETS |           0      0.00%      0.00% |           1     33.33%     33.33% |           0      0.00%     33.33% |           0      0.00%     33.33% |           0      0.00%     33.33% |           0      0.00%     33.33% |           0      0.00%     33.33% |           0      0.00%     33.33% |           0      0.00%     33.33% |           0      0.00%     33.33% |           2     66.67%    100.00% |           0      0.00%    100.00% |           0      0.00%    100.00% |           0      0.00%    100.00% |           0      0.00%    100.00% |           0      0.00%    100.00% (Unspecified)
board.cache_hierarchy.ruby_system.L2Cache_Controller.MT_IIB.L1_GETS::total            3                       (Unspecified)
board.cache_hierarchy.ruby_system.L2Cache_Controller.MT_IIB.WB_Data |          22      4.27%      4.27% |          69     13.40%     17.67% |          58     11.26%     28.93% |          28      5.44%     34.37% |          28      5.44%     39.81% |          59     11.46%     51.26% |          19      3.69%     54.95% |          20      3.88%     58.83% |          19      3.69%     62.52% |          38      7.38%     69.90% |          33      6.41%     76.31% |          19      3.69%     80.00% |          27      5.24%     85.24% |          18      3.50%     88.74% |          34      6.60%     95.34% |          24      4.66%    100.00% (Unspecified)
board.cache_hierarchy.ruby_system.L2Cache_Controller.MT_IIB.WB_Data::total          515                       (Unspecified)
board.cache_hierarchy.ruby_system.L2Cache_Controller.MT_IIB.WB_Data_clean |         108      5.97%      5.97% |         111      6.14%     12.11% |         114      6.31%     18.42% |         115      6.36%     24.78% |         114      6.31%     31.08% |         118      6.53%     37.61% |         116      6.42%     44.03% |         113      6.25%     50.28% |         113      6.25%     56.53% |         112      6.19%     62.72% |         114      6.31%     69.03% |         109      6.03%     75.06% |         114      6.31%     81.36% |         116      6.42%     87.78% |         114      6.31%     94.08% |         107      5.92%    100.00% (Unspecified)
board.cache_hierarchy.ruby_system.L2Cache_Controller.MT_IIB.WB_Data_clean::total         1808                       (Unspecified)
board.cache_hierarchy.ruby_system.L2Cache_Controller.MT_IIB.Unblock |           1      1.96%      1.96% |          20     39.22%     41.18% |           0      0.00%     41.18% |          15     29.41%     70.59% |           0      0.00%     70.59% |           0      0.00%     70.59% |           2      3.92%     74.51% |           1      1.96%     76.47% |           0      0.00%     76.47% |           0      0.00%     76.47% |          10     19.61%     96.08% |           0      0.00%     96.08% |           0      0.00%     96.08% |           0      0.00%     96.08% |           1      1.96%     98.04% |           1      1.96%    100.00% (Unspecified)
board.cache_hierarchy.ruby_system.L2Cache_Controller.MT_IIB.Unblock::total           51                       (Unspecified)
board.cache_hierarchy.ruby_system.L2Cache_Controller.MT_IB.WB_Data |           1      3.12%      3.12% |          17     53.12%     56.25% |           0      0.00%     56.25% |           0      0.00%     56.25% |           0      0.00%     56.25% |           0      0.00%     56.25% |           2      6.25%     62.50% |           1      3.12%     65.62% |           0      0.00%     65.62% |           0      0.00%     65.62% |          10     31.25%     96.88% |           0      0.00%     96.88% |           0      0.00%     96.88% |           0      0.00%     96.88% |           0      0.00%     96.88% |           1      3.12%    100.00% (Unspecified)
board.cache_hierarchy.ruby_system.L2Cache_Controller.MT_IB.WB_Data::total           32                       (Unspecified)
board.cache_hierarchy.ruby_system.L2Cache_Controller.MT_IB.WB_Data_clean |           0      0.00%      0.00% |           3     15.79%     15.79% |           0      0.00%     15.79% |          15     78.95%     94.74% |           0      0.00%     94.74% |           0      0.00%     94.74% |           0      0.00%     94.74% |           0      0.00%     94.74% |           0      0.00%     94.74% |           0      0.00%     94.74% |           0      0.00%     94.74% |           0      0.00%     94.74% |           0      0.00%     94.74% |           0      0.00%     94.74% |           1      5.26%    100.00% |           0      0.00%    100.00% (Unspecified)
board.cache_hierarchy.ruby_system.L2Cache_Controller.MT_IB.WB_Data_clean::total           19                       (Unspecified)
board.cache_hierarchy.ruby_system.L2Cache_Controller.MT_SB.L1_GETS |           0      0.00%      0.00% |           0      0.00%      0.00% |           0      0.00%      0.00% |           0      0.00%      0.00% |           0      0.00%      0.00% |           0      0.00%      0.00% |           0      0.00%      0.00% |           0      0.00%      0.00% |           0      0.00%      0.00% |           0      0.00%      0.00% |           2    100.00%    100.00% |           0      0.00%    100.00% |           0      0.00%    100.00% |           0      0.00%    100.00% |           0      0.00%    100.00% |           0      0.00%    100.00% (Unspecified)
board.cache_hierarchy.ruby_system.L2Cache_Controller.MT_SB.L1_GETS::total            2                       (Unspecified)
board.cache_hierarchy.ruby_system.L2Cache_Controller.MT_SB.L1_UPGRADE |           0      0.00%      0.00% |           0      0.00%      0.00% |           0      0.00%      0.00% |           0      0.00%      0.00% |           0      0.00%      0.00% |           0      0.00%      0.00% |           0      0.00%      0.00% |           0      0.00%      0.00% |           0      0.00%      0.00% |           0      0.00%      0.00% |           2    100.00%    100.00% |           0      0.00%    100.00% |           0      0.00%    100.00% |           0      0.00%    100.00% |           0      0.00%    100.00% |           0      0.00%    100.00% (Unspecified)
board.cache_hierarchy.ruby_system.L2Cache_Controller.MT_SB.L1_UPGRADE::total            2                       (Unspecified)
board.cache_hierarchy.ruby_system.L2Cache_Controller.MT_SB.Unblock |         130      5.60%      5.60% |         180      7.75%     13.34% |         172      7.40%     20.75% |         143      6.16%     26.90% |         142      6.11%     33.02% |         177      7.62%     40.64% |         135      5.81%     46.45% |         133      5.73%     52.17% |         132      5.68%     57.86% |         150      6.46%     64.31% |         147      6.33%     70.64% |         128      5.51%     76.15% |         141      6.07%     82.22% |         134      5.77%     87.99% |         148      6.37%     94.36% |         131      5.64%    100.00% (Unspecified)
board.cache_hierarchy.ruby_system.L2Cache_Controller.MT_SB.Unblock::total         2323                       (Unspecified)
board.cache_hierarchy.ruby_system.RequestType.LD.latency_hist_seqr::bucket_size          128                       (Unspecified)
board.cache_hierarchy.ruby_system.RequestType.LD.latency_hist_seqr::max_bucket         1279                       (Unspecified)
board.cache_hierarchy.ruby_system.RequestType.LD.latency_hist_seqr::samples       251035                       (Unspecified)
board.cache_hierarchy.ruby_system.RequestType.LD.latency_hist_seqr::mean     8.434947                       (Unspecified)
board.cache_hierarchy.ruby_system.RequestType.LD.latency_hist_seqr::gmean     1.706521                       (Unspecified)
board.cache_hierarchy.ruby_system.RequestType.LD.latency_hist_seqr::stdev    19.877634                       (Unspecified)
board.cache_hierarchy.ruby_system.RequestType.LD.latency_hist_seqr |      250958     99.97%     99.97% |          68      0.03%    100.00% |           7      0.00%    100.00% |           0      0.00%    100.00% |           0      0.00%    100.00% |           0      0.00%    100.00% |           0      0.00%    100.00% |           0      0.00%    100.00% |           1      0.00%    100.00% |           1      0.00%    100.00% (Unspecified)
[...]
board.processor.cores9.core.decode.branchMispred          115                       # Number of times decode detected a branch misprediction (Count)
board.processor.cores9.core.decode.decodedInsts       301077                       # Number of instructions handled by decode (Count)
board.processor.cores9.core.decode.squashedInsts          576                       # Number of squashed instructions handled by decode (Count)
board.processor.cores9.core.executeStats0.numInsts       180448                       # Number of executed instructions (Count)
board.processor.cores9.core.executeStats0.numNop            0                       # Number of nop insts executed (Count)
board.processor.cores9.core.executeStats0.numBranches        12962                       # Number of branches executed (Count)
board.processor.cores9.core.executeStats0.numLoadInsts        41789                       # Number of load instructions executed (Count)
board.processor.cores9.core.executeStats0.numStoreInsts        19008                       # Number of stores executed (Count)
board.processor.cores9.core.executeStats0.instRate     0.069284                       # Inst execution rate ((Count/Cycle))
board.processor.cores9.core.executeStats0.numCCRegReads        22843                       # Number of times the CC registers were read (Count)
board.processor.cores9.core.executeStats0.numCCRegWrites        30025                       # Number of times the CC registers were written (Count)
board.processor.cores9.core.executeStats0.numFpRegReads           20                       # Number of times the floating registers were read (Count)
board.processor.cores9.core.executeStats0.numFpRegWrites           10                       # Number of times the floating registers were written (Count)
board.processor.cores9.core.executeStats0.numIntRegReads       234189                       # Number of times the integer registers were read (Count)
board.processor.cores9.core.executeStats0.numIntRegWrites       133359                       # Number of times the integer registers were written (Count)
board.processor.cores9.core.executeStats0.numMemRefs        60797                       # Number of memory refs (Count)
board.processor.cores9.core.executeStats0.numMiscRegReads        86748                       # Number of times the Misc registers were read (Count)
board.processor.cores9.core.executeStats0.numMiscRegWrites            1                       # Number of times the Misc registers were written (Count)
board.processor.cores9.core.executeStats0.numVecAluAccesses            0                       # Number of vector alu accesses (Count)
board.processor.cores9.core.executeStats0.numDiscardedOps            0                       # Number of ops (including micro ops) which were discarded before commit (Count)
board.processor.cores9.core.fetch.predictedBranches        23077                       # Number of branches that fetch has predicted taken (Count)
board.processor.cores9.core.fetch.cycles      2558634                       # Number of cycles fetch has run and was not squashing or blocked (Cycle)
board.processor.cores9.core.fetch.squashCycles         4832                       # Number of cycles fetch has spent squashing (Cycle)
board.processor.cores9.core.fetch.miscStallCycles          157                       # Number of cycles fetch has spent waiting on interrupts, or bad addresses, or out of MSHRs (Cycle)
board.processor.cores9.core.fetch.pendingTrapStallCycles          994                       # Number of stall cycles due to pending traps (Cycle)
board.processor.cores9.core.fetch.cacheLines        33581                       # Number of cache lines fetched (Count)
board.processor.cores9.core.fetch.icacheSquashes           79                       # Number of outstanding Icache misses that were squashed (Count)
board.processor.cores9.core.fetch.nisnDist::samples      2601917                       # Number of instructions fetched each cycle (Total) (Count)
board.processor.cores9.core.fetch.nisnDist::mean     0.141540                       # Number of instructions fetched each cycle (Total) (Count)
board.processor.cores9.core.fetch.nisnDist::stdev     0.982443                       # Number of instructions fetched each cycle (Total) (Count)
board.processor.cores9.core.fetch.nisnDist::underflows            0      0.00%      0.00% # Number of instructions fetched each cycle (Total) (Count)
board.processor.cores9.core.fetch.nisnDist::0      2543064     97.74%     97.74% # Number of instructions fetched each cycle (Total) (Count)
board.processor.cores9.core.fetch.nisnDist::1           70      0.00%     97.74% # Number of instructions fetched each cycle (Total) (Count)
board.processor.cores9.core.fetch.nisnDist::2         6173      0.24%     97.98% # Number of instructions fetched each cycle (Total) (Count)
board.processor.cores9.core.fetch.nisnDist::3           81      0.00%     97.98% # Number of instructions fetched each cycle (Total) (Count)
board.processor.cores9.core.fetch.nisnDist::4        10309      0.40%     98.38% # Number of instructions fetched each cycle (Total) (Count)
board.processor.cores9.core.fetch.nisnDist::5          158      0.01%     98.38% # Number of instructions fetched each cycle (Total) (Count)
board.processor.cores9.core.fetch.nisnDist::6        10359      0.40%     98.78% # Number of instructions fetched each cycle (Total) (Count)
board.processor.cores9.core.fetch.nisnDist::7         2188      0.08%     98.87% # Number of instructions fetched each cycle (Total) (Count)
board.processor.cores9.core.fetch.nisnDist::8        29515      1.13%    100.00% # Number of instructions fetched each cycle (Total) (Count)
board.processor.cores9.core.fetch.nisnDist::overflows            0      0.00%    100.00% # Number of instructions fetched each cycle (Total) (Count)
board.processor.cores9.core.fetch.nisnDist::min_value            0                       # Number of instructions fetched each cycle (Total) (Count)
board.processor.cores9.core.fetch.nisnDist::max_value            8                       # Number of instructions fetched each cycle (Total) (Count)
board.processor.cores9.core.fetch.nisnDist::total      2601917                       # Number of instructions fetched each cycle (Total) (Count)
board.processor.cores9.core.fetchStats0.numInsts       242424                       # Number of instructions fetched (thread level) (Count)
board.processor.cores9.core.fetchStats0.numOps            0                       # Number of ops (including micro ops) fetched (thread level) (Count)
board.processor.cores9.core.fetchStats0.fetchRate     0.093079                       # Number of inst fetches per cycle ((Count/Cycle))
board.processor.cores9.core.fetchStats0.numBranches        23686                       # Number of branches fetched (Count)
board.processor.cores9.core.fetchStats0.branchRate     0.009094                       # Number of branch fetches per cycle (Ratio)
board.processor.cores9.core.fetchStats0.icacheStallCycles        39716                       # ICache total stall cycles (Cycle)
board.processor.cores9.core.fetchStats0.numFetchSuspends            0                       # Number of times Execute suspended instruction fetching (Count)
board.processor.cores9.core.iew.idleCycles            0                       # Number of cycles IEW is idle (Cycle)
board.processor.cores9.core.iew.squashCycles         2302                       # Number of cycles IEW is squashing (Cycle)
board.processor.cores9.core.iew.blockCycles      2470820                       # Number of cycles IEW is blocking (Cycle)
board.processor.cores9.core.iew.unblockCycles         4186                       # Number of cycles IEW is unblocking (Cycle)
board.processor.cores9.core.iew.dispatchedInsts       284160                       # Number of instructions dispatched to IQ (Count)
board.processor.cores9.core.iew.dispSquashedInsts            2                       # Number of squashed instructions skipped by dispatch (Count)
board.processor.cores9.core.iew.dispLoadInsts        74782                       # Number of dispatched load instructions (Count)
board.processor.cores9.core.iew.dispStoreInsts        35506                       # Number of dispatched store instructions (Count)
board.processor.cores9.core.iew.dispNonSpecInsts         6175                       # Number of dispatched non-speculative instructions (Count)
board.processor.cores9.core.iew.iqFullEvents           31                       # Number of times the IQ has become full, causing a stall (Count)
board.processor.cores9.core.iew.lsqFullEvents           55                       # Number of times the LSQ has become full, causing a stall (Count)
board.processor.cores9.core.iew.memOrderViolationEvents         4100                       # Number of memory order violations (Count)
board.processor.cores9.core.iew.predictedTakenIncorrect            8                       # Number of branches that were predicted taken incorrectly (Count)
board.processor.cores9.core.iew.predictedNotTakenIncorrect          240                       # Number of branches that were predicted not taken incorrectly (Count)
board.processor.cores9.core.iew.branchMispredicts          248                       # Number of branch mispredicts detected at execute (Count)
board.processor.cores9.core.iew.instsToCommit       180399                       # Cumulative count of insts sent to commit (Count)
board.processor.cores9.core.iew.writebackCount       180147                       # Cumulative count of insts written-back (Count)
board.processor.cores9.core.iew.producerInst       118703                       # Number of instructions producing a value (Count)
board.processor.cores9.core.iew.consumerInst       221281                       # Number of instructions consuming a value (Count)
board.processor.cores9.core.iew.wbRate       0.069168                       # Insts written-back per cycle ((Count/Cycle))
board.processor.cores9.core.iew.wbFanout     0.536436                       # Average fanout of values written-back ((Count/Count))
board.processor.cores9.core.interrupts.clk_domain.clock         5328                       # Clock period in ticks (Tick)
board.processor.cores9.core.lsq0.forwLoads         4280                       # Number of loads that had data forwarded from stores (Count)
board.processor.cores9.core.lsq0.squashedLoads        47592                       # Number of loads squashed (Count)
board.processor.cores9.core.lsq0.ignoredResponses            1                       # Number of memory responses ignored because the instruction is squashed (Count)
board.processor.cores9.core.lsq0.memOrderViolation         4100                       # Number of memory ordering violations (Count)
board.processor.cores9.core.lsq0.squashedStores        22778                       # Number of stores squashed (Count)
board.processor.cores9.core.lsq0.rescheduledLoads            0                       # Number of loads that were rescheduled (Count)
board.processor.cores9.core.lsq0.blockedByCache            2                       # Number of times an access to memory failed due to the cache being blocked (Count)
board.processor.cores9.core.lsq0.loadToUse::samples        27190                       # Distribution of cycle latency between the first time a load is issued and its completion (Unspecified)
board.processor.cores9.core.lsq0.loadToUse::mean    92.782273                       # Distribution of cycle latency between the first time a load is issued and its completion (Unspecified)
board.processor.cores9.core.lsq0.loadToUse::stdev   301.222564                       # Distribution of cycle latency between the first time a load is issued and its completion (Unspecified)
board.processor.cores9.core.lsq0.loadToUse::0-9        23028     84.69%     84.69% # Distribution of cycle latency between the first time a load is issued and its completion (Unspecified)
board.processor.cores9.core.lsq0.loadToUse::10-19          127      0.47%     85.16% # Distribution of cycle latency between the first time a load is issued and its completion (Unspecified)
board.processor.cores9.core.lsq0.loadToUse::20-29            4      0.01%     85.17% # Distribution of cycle latency between the first time a load is issued and its completion (Unspecified)
board.processor.cores9.core.lsq0.loadToUse::30-39            1      0.00%     85.18% # Distribution of cycle latency between the first time a load is issued and its completion (Unspecified)
board.processor.cores9.core.lsq0.loadToUse::50-59         1933      7.11%     92.29% # Distribution of cycle latency between the first time a load is issued and its completion (Unspecified)
board.processor.cores9.core.lsq0.loadToUse::60-69           29      0.11%     92.39% # Distribution of cycle latency between the first time a load is issued and its completion (Unspecified)
board.processor.cores9.core.lsq0.loadToUse::70-79            1      0.00%     92.40% # Distribution of cycle latency between the first time a load is issued and its completion (Unspecified)
board.processor.cores9.core.lsq0.loadToUse::80-89            8      0.03%     92.43% # Distribution of cycle latency between the first time a load is issued and its completion (Unspecified)
board.processor.cores9.core.lsq0.loadToUse::90-99            8      0.03%     92.46% # Distribution of cycle latency between the first time a load is issued and its completion (Unspecified)
board.processor.cores9.core.lsq0.loadToUse::150-159            1      0.00%     92.46% # Distribution of cycle latency between the first time a load is issued and its completion (Unspecified)
board.processor.cores9.core.lsq0.loadToUse::200-209            1      0.00%     92.46% # Distribution of cycle latency between the first time a load is issued and its completion (Unspecified)
board.processor.cores9.core.lsq0.loadToUse::240-249            1      0.00%     92.47% # Distribution of cycle latency between the first time a load is issued and its completion (Unspecified)
board.processor.cores9.core.lsq0.loadToUse::overflows         2048      7.53%    100.00% # Distribution of cycle latency between the first time a load is issued and its completion (Unspecified)
board.processor.cores9.core.lsq0.loadToUse::min_value            2                       # Distribution of cycle latency between the first time a load is issued and its completion (Unspecified)
board.processor.cores9.core.lsq0.loadToUse::max_value         1218                       # Distribution of cycle latency between the first time a load is issued and its completion (Unspecified)
board.processor.cores9.core.lsq0.loadToUse::total        27190                       # Distribution of cycle latency between the first time a load is issued and its completion (Unspecified)
board.processor.cores9.core.mmu.dtb.rdAccesses        41777                       # TLB accesses on read requests (Count)
board.processor.cores9.core.mmu.dtb.wrAccesses        19008                       # TLB accesses on write requests (Count)
board.processor.cores9.core.mmu.dtb.rdMisses           89                       # TLB misses on read requests (Count)
board.processor.cores9.core.mmu.dtb.wrMisses           12                       # TLB misses on write requests (Count)
board.processor.cores9.core.mmu.dtb.walker.power_state.pwrStateResidencyTicks::UNDEFINED   1181043774                       # Cumulative time (in ticks) in various power states (Tick)
board.processor.cores9.core.mmu.itb.rdAccesses            0                       # TLB accesses on read requests (Count)
board.processor.cores9.core.mmu.itb.wrAccesses        33741                       # TLB accesses on write requests (Count)
board.processor.cores9.core.mmu.itb.rdMisses            0                       # TLB misses on read requests (Count)
board.processor.cores9.core.mmu.itb.wrMisses          199                       # TLB misses on write requests (Count)
board.processor.cores9.core.mmu.itb.walker.power_state.pwrStateResidencyTicks::UNDEFINED   1181043774                       # Cumulative time (in ticks) in various power states (Tick)
board.processor.cores9.core.power_state.pwrStateResidencyTicks::ON   1181043774                       # Cumulative time (in ticks) in various power states (Tick)
board.processor.cores9.core.rename.squashCycles         2302                       # Number of cycles rename is squashing (Cycle)
board.processor.cores9.core.rename.idleCycles        32246                       # Number of cycles rename is idle (Cycle)
board.processor.cores9.core.rename.blockCycles      2491497                       # Number of cycles rename is blocking (Cycle)
board.processor.cores9.core.rename.serializeStallCycles            0                       # count of cycles rename stalled for serializing inst (Cycle)
board.processor.cores9.core.rename.runCycles        34090                       # Number of cycles rename is running (Cycle)
board.processor.cores9.core.rename.unblockCycles        41782                       # Number of cycles rename is unblocking (Cycle)
board.processor.cores9.core.rename.renamedInsts       300841                       # Number of instructions processed by rename (Count)
board.processor.cores9.core.rename.ROBFullEvents            8                       # Number of times rename has blocked due to ROB full (Count)
board.processor.cores9.core.rename.IQFullEvents        38998                       # Number of times rename has blocked due to IQ full (Count)
board.processor.cores9.core.rename.LQFullEvents           94                       # Number of times rename has blocked due to LQ full (Count)
board.processor.cores9.core.rename.SQFullEvents          626                       # Number of times rename has blocked due to SQ full (Count)
board.processor.cores9.core.rename.renamedOperands       385976                       # Number of destination operands rename has renamed (Count)
board.processor.cores9.core.rename.lookups       893979                       # Number of register rename lookups that rename has made (Count)
board.processor.cores9.core.rename.intLookups       429314                       # Number of integer rename lookups (Count)
board.processor.cores9.core.rename.fpLookups           20                       # Number of floating rename lookups (Count)
board.processor.cores9.core.rename.committedMaps       130763                       # Number of HB maps that are committed (Count)
board.processor.cores9.core.rename.undoneMaps       255213                       # Number of HB maps that are undone due to squashing (Count)
board.processor.cores9.core.rename.serializing            0                       # count of serializing insts renamed (Count)
board.processor.cores9.core.rename.tempSerializing            0                       # count of temporary serializing insts renamed (Count)
board.processor.cores9.core.rename.skidInsts        61941                       # count of insts added to the skid buffer (Count)
board.processor.cores9.core.rob.reads         2860417                       # The number of ROB reads (Count)
board.processor.cores9.core.rob.writes         591058                       # The number of ROB writes (Count)
board.processor.cores9.core.thread_0.numInsts        65432                       # Number of Instructions committed (Count)
board.processor.cores9.core.thread_0.numOps       102431                       # Number of Ops committed (Count)
board.processor.cores9.core.thread_0.numMemRefs            0                       # Number of Memory References (Count)
board.workload.inst.arm                             0                       # number of arm instructions executed (Count)
board.workload.inst.quiesce                         0                       # number of quiesce instructions executed (Count)

---------- End Simulation Statistics   ----------
