
---------- Begin Simulation Statistics ----------
simSeconds                                   0.000265                       # Number of seconds simulated (Second)
simTicks                                    265036698                       # Number of ticks simulated (Tick)
finalTick                                   488364147                       # Number of ticks from beginning of simulation (restored from checkpoints and never reset) (Tick)
simFreq                                  1000000000000                       # The number of ticks per simulated second ((Tick/Second))
hostSeconds                                     31.49                       # Real time elapsed on the host (Second)
hostTickRate                                  8416230                       # The number of ticks simulated per host second (ticks/s) ((Tick/Second))
hostMemory                                    1754496                       # Number of bytes of host memory used (Byte)
simInsts                                      1764706                       # Number of instructions simulated (Count)
simOps                                        2990903                       # Number of ops (including micro ops) simulated (Count)
hostInstRate                                    56038                       # Simulator instruction rate (inst/s) ((Count/Second))
hostOpRate                                      94976                       # Simulator op (including micro ops) rate (op/s) ((Count/Second))
board.cache_hierarchy.ruby_system.delayHistogram::bucket_size          128                       # delay histogram for all message (Unspecified)
board.cache_hierarchy.ruby_system.delayHistogram::max_bucket         1279                       # delay histogram for all message (Unspecified)
board.cache_hierarchy.ruby_system.delayHistogram::samples       151573                       # delay histogram for all message (Unspecified)
board.cache_hierarchy.ruby_system.delayHistogram::mean   161.363000                       # delay histogram for all message (Unspecified)
board.cache_hierarchy.ruby_system.delayHistogram::stdev   390.933861                       # delay histogram for all message (Unspecified)
board.cache_hierarchy.ruby_system.delayHistogram |      128516     84.79%     84.79% |         741      0.49%     85.28% |         728      0.48%     85.76% |         153      0.10%     85.86% |         705      0.47%     86.32% |        1053      0.69%     87.02% |          75      0.05%     87.07% |        2026      1.34%     88.40% |        4526      2.99%     91.39% |       13050      8.61%    100.00% # delay histogram for all message (Unspecified)
board.cache_hierarchy.ruby_system.delayHistogram::total       151573                       # delay histogram for all message (Unspecified)
board.cache_hierarchy.ruby_system.m_outstandReqHistSeqr::bucket_size            2                       (Unspecified)
board.cache_hierarchy.ruby_system.m_outstandReqHistSeqr::max_bucket           19                       (Unspecified)
board.cache_hierarchy.ruby_system.m_outstandReqHistSeqr::samples      1070898                       (Unspecified)
board.cache_hierarchy.ruby_system.m_outstandReqHistSeqr::mean     1.231843                       (Unspecified)
board.cache_hierarchy.ruby_system.m_outstandReqHistSeqr::gmean     1.158493                       (Unspecified)
board.cache_hierarchy.ruby_system.m_outstandReqHistSeqr::stdev     0.536210                       (Unspecified)
board.cache_hierarchy.ruby_system.m_outstandReqHistSeqr |      870212     81.26%     81.26% |      197611     18.45%     99.71% |        2688      0.25%     99.96% |         218      0.02%     99.98% |          71      0.01%     99.99% |          38      0.00%     99.99% |          53      0.00%    100.00% |           3      0.00%    100.00% |           4      0.00%    100.00% |           0      0.00%    100.00% (Unspecified)
board.cache_hierarchy.ruby_system.m_outstandReqHistSeqr::total      1070898                       (Unspecified)
board.cache_hierarchy.ruby_system.m_latencyHistSeqr::bucket_size          256                       (Unspecified)
board.cache_hierarchy.ruby_system.m_latencyHistSeqr::max_bucket         2559                       (Unspecified)
board.cache_hierarchy.ruby_system.m_latencyHistSeqr::samples      1071492                       (Unspecified)
board.cache_hierarchy.ruby_system.m_latencyHistSeqr::mean     7.324735                       (Unspecified)
board.cache_hierarchy.ruby_system.m_latencyHistSeqr::gmean     1.192368                       (Unspecified)
board.cache_hierarchy.ruby_system.m_latencyHistSeqr::stdev    39.028763                       (Unspecified)
board.cache_hierarchy.ruby_system.m_latencyHistSeqr |     1052070     98.19%     98.19% |       19411      1.81%    100.00% |           1      0.00%    100.00% |           0      0.00%    100.00% |           8      0.00%    100.00% |           2      0.00%    100.00% |           0      0.00%    100.00% |           0      0.00%    100.00% |           0      0.00%    100.00% |           0      0.00%    100.00% (Unspecified)
board.cache_hierarchy.ruby_system.m_latencyHistSeqr::total      1071492                       (Unspecified)
board.cache_hierarchy.ruby_system.m_hitLatencyHistSeqr::bucket_size          128                       (Unspecified)
board.cache_hierarchy.ruby_system.m_hitLatencyHistSeqr::max_bucket         1279                       (Unspecified)
board.cache_hierarchy.ruby_system.m_hitLatencyHistSeqr::samples      1031980                       (Unspecified)
board.cache_hierarchy.ruby_system.m_hitLatencyHistSeqr::mean     1.001930                       (Unspecified)
board.cache_hierarchy.ruby_system.m_hitLatencyHistSeqr::gmean     1.000413                       (Unspecified)
board.cache_hierarchy.ruby_system.m_hitLatencyHistSeqr::stdev     1.158812                       (Unspecified)
board.cache_hierarchy.ruby_system.m_hitLatencyHistSeqr |     1031979    100.00%    100.00% |           0      0.00%    100.00% |           0      0.00%    100.00% |           0      0.00%    100.00% |           0      0.00%    100.00% |           0      0.00%    100.00% |           0      0.00%    100.00% |           0      0.00%    100.00% |           0      0.00%    100.00% |           1      0.00%    100.00% (Unspecified)
board.cache_hierarchy.ruby_system.m_hitLatencyHistSeqr::total      1031980                       (Unspecified)
board.cache_hierarchy.ruby_system.m_missLatencyHistSeqr::bucket_size          256                       (Unspecified)
board.cache_hierarchy.ruby_system.m_missLatencyHistSeqr::max_bucket         2559                       (Unspecified)
board.cache_hierarchy.ruby_system.m_missLatencyHistSeqr::samples        39512                       (Unspecified)
board.cache_hierarchy.ruby_system.m_missLatencyHistSeqr::mean   172.464644                       (Unspecified)
board.cache_hierarchy.ruby_system.m_missLatencyHistSeqr::gmean   116.795183                       (Unspecified)
board.cache_hierarchy.ruby_system.m_missLatencyHistSeqr::stdev   113.830735                       (Unspecified)
board.cache_hierarchy.ruby_system.m_missLatencyHistSeqr |       20091     50.85%     50.85% |       19411     49.13%     99.97% |           1      0.00%     99.98% |           0      0.00%     99.98% |           7      0.02%     99.99% |           2      0.01%    100.00% |           0      0.00%    100.00% |           0      0.00%    100.00% |           0      0.00%    100.00% |           0      0.00%    100.00% (Unspecified)
board.cache_hierarchy.ruby_system.m_missLatencyHistSeqr::total        39512                       (Unspecified)
board.cache_hierarchy.ruby_system.delayVCHist.vnet_0::bucket_size          128                       # delay histogram for vnet_0 (Unspecified)
board.cache_hierarchy.ruby_system.delayVCHist.vnet_0::max_bucket         1279                       # delay histogram for vnet_0 (Unspecified)
board.cache_hierarchy.ruby_system.delayVCHist.vnet_0::samples        76113                       # delay histogram for vnet_0 (Unspecified)
board.cache_hierarchy.ruby_system.delayVCHist.vnet_0::mean   321.249984                       # delay histogram for vnet_0 (Unspecified)
board.cache_hierarchy.ruby_system.delayVCHist.vnet_0::stdev   502.989795                       # delay histogram for vnet_0 (Unspecified)
board.cache_hierarchy.ruby_system.delayVCHist.vnet_0 |       53056     69.71%     69.71% |         741      0.97%     70.68% |         728      0.96%     71.64% |         153      0.20%     71.84% |         705      0.93%     72.76% |        1053      1.38%     74.15% |          75      0.10%     74.25% |        2026      2.66%     76.91% |        4526      5.95%     82.85% |       13050     17.15%    100.00% # delay histogram for vnet_0 (Unspecified)
board.cache_hierarchy.ruby_system.delayVCHist.vnet_0::total        76113                       # delay histogram for vnet_0 (Unspecified)
board.cache_hierarchy.ruby_system.delayVCHist.vnet_1::bucket_size            8                       # delay histogram for vnet_1 (Unspecified)
board.cache_hierarchy.ruby_system.delayVCHist.vnet_1::max_bucket           79                       # delay histogram for vnet_1 (Unspecified)
board.cache_hierarchy.ruby_system.delayVCHist.vnet_1::samples        41863                       # delay histogram for vnet_1 (Unspecified)
board.cache_hierarchy.ruby_system.delayVCHist.vnet_1::mean     0.166448                       # delay histogram for vnet_1 (Unspecified)
board.cache_hierarchy.ruby_system.delayVCHist.vnet_1::stdev     1.383718                       # delay histogram for vnet_1 (Unspecified)
board.cache_hierarchy.ruby_system.delayVCHist.vnet_1 |       41381     98.85%     98.85% |         397      0.95%     99.80% |          55      0.13%     99.93% |          17      0.04%     99.97% |          12      0.03%    100.00% |           1      0.00%    100.00% |           0      0.00%    100.00% |           0      0.00%    100.00% |           0      0.00%    100.00% |           0      0.00%    100.00% # delay histogram for vnet_1 (Unspecified)
board.cache_hierarchy.ruby_system.delayVCHist.vnet_1::total        41863                       # delay histogram for vnet_1 (Unspecified)
board.cache_hierarchy.ruby_system.delayVCHist.vnet_2::bucket_size            1                       # delay histogram for vnet_2 (Unspecified)
board.cache_hierarchy.ruby_system.delayVCHist.vnet_2::max_bucket            9                       # delay histogram for vnet_2 (Unspecified)
board.cache_hierarchy.ruby_system.delayVCHist.vnet_2::samples        33597                       # delay histogram for vnet_2 (Unspecified)
board.cache_hierarchy.ruby_system.delayVCHist.vnet_2::mean     0.000179                       # delay histogram for vnet_2 (Unspecified)
board.cache_hierarchy.ruby_system.delayVCHist.vnet_2::stdev     0.018899                       # delay histogram for vnet_2 (Unspecified)
board.cache_hierarchy.ruby_system.delayVCHist.vnet_2 |       33594     99.99%     99.99% |           0      0.00%     99.99% |           3      0.01%    100.00% |           0      0.00%    100.00% |           0      0.00%    100.00% |           0      0.00%    100.00% |           0      0.00%    100.00% |           0      0.00%    100.00% |           0      0.00%    100.00% |           0      0.00%    100.00% # delay histogram for vnet_2 (Unspecified)
board.cache_hierarchy.ruby_system.delayVCHist.vnet_2::total        33597                       # delay histogram for vnet_2 (Unspecified)
board.cache_hierarchy.ruby_system.Directory_Controller.Fetch         1144      0.00%      0.00% (Unspecified)
board.cache_hierarchy.ruby_system.Directory_Controller.Memory_Data         1144      0.00%      0.00% (Unspecified)
board.cache_hierarchy.ruby_system.Directory_Controller.I.Fetch         1144      0.00%      0.00% (Unspecified)
board.cache_hierarchy.ruby_system.Directory_Controller.IM.Memory_Data         1144      0.00%      0.00% (Unspecified)
board.cache_hierarchy.ruby_system.L1Cache_Controller.Load |       14124      4.03%      4.03% |       21054      6.00%     10.03% |       21025      6.00%     16.03% |       21028      6.00%     22.03% |       21030      6.00%     28.02% |       21043      6.00%     34.02% |       21028      6.00%     40.02% |       21027      6.00%     46.02% |       21029      6.00%     52.02% |       21046      6.00%     58.02% |       21023      6.00%     64.01% |       21021      5.99%     70.01% |       21023      6.00%     76.00% |       21057      6.01%     82.01% |       21028      6.00%     88.01% |       21031      6.00%     94.00% |       21027      6.00%    100.00% (Unspecified)
board.cache_hierarchy.ruby_system.L1Cache_Controller.Load::total       350644                       (Unspecified)
board.cache_hierarchy.ruby_system.L1Cache_Controller.Ifetch |       20695      4.84%      4.84% |       25335      5.93%     10.77% |       25381      5.94%     16.71% |       25389      5.94%     22.65% |       25395      5.94%     28.59% |       25407      5.94%     34.54% |       25396      5.94%     40.48% |       25394      5.94%     46.42% |       25394      5.94%     52.36% |       25424      5.95%     58.31% |       25392      5.94%     64.25% |       25390      5.94%     70.19% |       25391      5.94%     76.14% |       25457      5.96%     82.09% |       25516      5.97%     88.06% |       25510      5.97%     94.03% |       25510      5.97%    100.00% (Unspecified)
board.cache_hierarchy.ruby_system.L1Cache_Controller.Ifetch::total       427376                       (Unspecified)
board.cache_hierarchy.ruby_system.L1Cache_Controller.Store |       22828      7.78%      7.78% |       16842      5.74%     13.52% |       16842      5.74%     19.26% |       16842      5.74%     25.00% |       16842      5.74%     30.73% |       16842      5.74%     36.47% |       16842      5.74%     42.21% |       16842      5.74%     47.95% |       16842      5.74%     53.69% |       16842      5.74%     59.43% |       16842      5.74%     65.17% |       16842      5.74%     70.91% |       16842      5.74%     76.65% |       17134      5.84%     82.48% |       17134      5.84%     88.32% |       17137      5.84%     94.16% |       17134      5.84%    100.00% (Unspecified)
board.cache_hierarchy.ruby_system.L1Cache_Controller.Store::total       293471                       (Unspecified)
board.cache_hierarchy.ruby_system.L1Cache_Controller.Inv |          84     34.15%     34.15% |           9      3.66%     37.80% |           9      3.66%     41.46% |          10      4.07%     45.53% |          10      4.07%     49.59% |          11      4.47%     54.07% |           9      3.66%     57.72% |          10      4.07%     61.79% |          10      4.07%     65.85% |          13      5.28%     71.14% |          14      5.69%     76.83% |           9      3.66%     80.49% |           9      3.66%     84.15% |           8      3.25%     87.40% |           8      3.25%     90.65% |          10      4.07%     94.72% |          13      5.28%    100.00% (Unspecified)
board.cache_hierarchy.ruby_system.L1Cache_Controller.Inv::total          246                       (Unspecified)
board.cache_hierarchy.ruby_system.L1Cache_Controller.L1_Replacement |         864     99.54%     99.54% |           0      0.00%     99.54% |           0      0.00%     99.54% |           0      0.00%     99.54% |           0      0.00%     99.54% |           2      0.23%     99.77% |           0      0.00%     99.77% |           0      0.00%     99.77% |           0      0.00%     99.77% |           2      0.23%    100.00% |           0      0.00%    100.00% |           0      0.00%    100.00% |           0      0.00%    100.00% |           0      0.00%    100.00% |           0      0.00%    100.00% |           0      0.00%    100.00% |           0      0.00%    100.00% (Unspecified)
board.cache_hierarchy.ruby_system.L1Cache_Controller.L1_Replacement::total          868                       (Unspecified)
board.cache_hierarchy.ruby_system.L1Cache_Controller.Fwd_GETX |          38      0.12%      0.12% |        1973      6.03%      6.14% |        2061      6.30%     12.44% |        2061      6.30%     18.74% |        2061      6.30%     25.03% |        2061      6.30%     31.33% |        2061      6.30%     37.63% |        2061      6.30%     43.92% |        2061      6.30%     50.22% |        2061      6.30%     56.52% |        2061      6.30%     62.82% |        2050      6.26%     69.08% |        2029      6.20%     75.28% |        1981      6.05%     81.33% |        2051      6.27%     87.60% |        2061      6.30%     93.89% |        1999      6.11%    100.00% (Unspecified)
board.cache_hierarchy.ruby_system.L1Cache_Controller.Fwd_GETX::total        32731                       (Unspecified)
board.cache_hierarchy.ruby_system.L1Cache_Controller.Fwd_GETS |         423     68.23%     68.23% |          17      2.74%     70.97% |          13      2.10%     73.06% |          13      2.10%     75.16% |          14      2.26%     77.42% |          13      2.10%     79.52% |          14      2.26%     81.77% |          13      2.10%     83.87% |          13      2.10%     85.97% |          14      2.26%     88.23% |          13      2.10%     90.32% |           9      1.45%     91.77% |           9      1.45%     93.23% |          12      1.94%     95.16% |           7      1.13%     96.29% |          10      1.61%     97.90% |          13      2.10%    100.00% (Unspecified)
board.cache_hierarchy.ruby_system.L1Cache_Controller.Fwd_GETS::total          620                       (Unspecified)
board.cache_hierarchy.ruby_system.L1Cache_Controller.Data |           0      0.00%      0.00% |           0      0.00%      0.00% |           0      0.00%      0.00% |           0      0.00%      0.00% |           0      0.00%      0.00% |           0      0.00%      0.00% |           0      0.00%      0.00% |           0      0.00%      0.00% |           0      0.00%      0.00% |           0      0.00%      0.00% |           0      0.00%      0.00% |           0      0.00%      0.00% |           0      0.00%      0.00% |           0      0.00%      0.00% |           1    100.00%    100.00% |           0      0.00%    100.00% |           0      0.00%    100.00% (Unspecified)
board.cache_hierarchy.ruby_system.L1Cache_Controller.Data::total            1                       (Unspecified)
board.cache_hierarchy.ruby_system.L1Cache_Controller.Data_Exclusive |          68      3.51%      3.51% |         138      7.13%     10.65% |         133      6.87%     17.52% |         132      6.82%     24.34% |         133      6.87%     31.21% |         132      6.82%     38.04% |         133      6.87%     44.91% |         132      6.82%     51.73% |         132      6.82%     58.55% |         132      6.82%     65.37% |         132      6.82%     72.20% |         132      6.82%     79.02% |         132      6.82%     85.84% |         127      6.56%     92.40% |          73      3.77%     96.18% |          35      1.81%     97.98% |          39      2.02%    100.00% (Unspecified)
board.cache_hierarchy.ruby_system.L1Cache_Controller.Data_Exclusive::total         1935                       (Unspecified)
board.cache_hierarchy.ruby_system.L1Cache_Controller.DataS_fromL1 |          52      8.39%      8.39% |          20      3.23%     11.61% |          21      3.39%     15.00% |          19      3.06%     18.06% |          20      3.23%     21.29% |          21      3.39%     24.68% |          18      2.90%     27.58% |          19      3.06%     30.65% |          19      3.06%     33.71% |          20      3.23%     36.94% |          21      3.39%     40.32% |          21      3.39%     43.71% |          21      3.39%     47.10% |          29      4.68%     51.77% |          77     12.42%     64.19% |         112     18.06%     82.26% |         110     17.74%    100.00% (Unspecified)
board.cache_hierarchy.ruby_system.L1Cache_Controller.DataS_fromL1::total          620                       (Unspecified)
board.cache_hierarchy.ruby_system.L1Cache_Controller.Data_all_Acks |         777      2.12%      2.12% |        2152      5.86%      7.97% |        2244      6.11%     14.08% |        2248      6.12%     20.20% |        2245      6.11%     26.32% |        2252      6.13%     32.45% |        2248      6.12%     38.57% |        2249      6.12%     44.69% |        2248      6.12%     50.81% |        2255      6.14%     56.95% |        2249      6.12%     63.07% |        2248      6.12%     69.19% |        2230      6.07%     75.27% |        2227      6.06%     81.33% |        2305      6.28%     87.60% |        2306      6.28%     93.88% |        2247      6.12%    100.00% (Unspecified)
board.cache_hierarchy.ruby_system.L1Cache_Controller.Data_all_Acks::total        36730                       (Unspecified)
board.cache_hierarchy.ruby_system.L1Cache_Controller.Ack |          38     15.51%     15.51% |          13      5.31%     20.82% |          14      5.71%     26.53% |          13      5.31%     31.84% |          13      5.31%     37.14% |          12      4.90%     42.04% |          14      5.71%     47.76% |          14      5.71%     53.47% |          14      5.71%     59.18% |          13      5.31%     64.49% |          14      5.71%     70.20% |          18      7.35%     77.55% |          14      5.71%     83.27% |          14      5.71%     88.98% |          11      4.49%     93.47% |           9      3.67%     97.14% |           7      2.86%    100.00% (Unspecified)
board.cache_hierarchy.ruby_system.L1Cache_Controller.Ack::total          245                       (Unspecified)
board.cache_hierarchy.ruby_system.L1Cache_Controller.Ack_all |          34     14.98%     14.98% |          13      5.73%     20.70% |          13      5.73%     26.43% |          13      5.73%     32.16% |          13      5.73%     37.89% |          12      5.29%     43.17% |          13      5.73%     48.90% |          13      5.73%     54.63% |          13      5.73%     60.35% |          13      5.73%     66.08% |          13      5.73%     71.81% |          14      6.17%     77.97% |          13      5.73%     83.70% |          12      5.29%     88.99% |          10      4.41%     93.39% |           8      3.52%     96.92% |           7      3.08%    100.00% (Unspecified)
board.cache_hierarchy.ruby_system.L1Cache_Controller.Ack_all::total          227                       (Unspecified)
board.cache_hierarchy.ruby_system.L1Cache_Controller.WB_Ack |         341    100.00%    100.00% |           0      0.00%    100.00% |           0      0.00%    100.00% |           0      0.00%    100.00% |           0      0.00%    100.00% |           0      0.00%    100.00% |           0      0.00%    100.00% |           0      0.00%    100.00% |           0      0.00%    100.00% |           0      0.00%    100.00% |           0      0.00%    100.00% |           0      0.00%    100.00% |           0      0.00%    100.00% |           0      0.00%    100.00% |           0      0.00%    100.00% |           0      0.00%    100.00% |           0      0.00%    100.00% (Unspecified)
board.cache_hierarchy.ruby_system.L1Cache_Controller.WB_Ack::total          341                       (Unspecified)
board.cache_hierarchy.ruby_system.L1Cache_Controller.NP.Load |         126      4.60%      4.60% |         163      5.96%     10.56% |         163      5.96%     16.51% |         164      5.99%     22.51% |         164      5.99%     28.50% |         165      6.03%     34.53% |         164      5.99%     40.52% |         164      5.99%     46.51% |         164      5.99%     52.50% |         165      6.03%     58.53% |         164      5.99%     64.52% |         164      5.99%     70.52% |         164      5.99%     76.51% |         160      5.85%     82.35% |         161      5.88%     88.24% |         161      5.88%     94.12% |         161      5.88%    100.00% (Unspecified)
board.cache_hierarchy.ruby_system.L1Cache_Controller.NP.Load::total         2737                       (Unspecified)
board.cache_hierarchy.ruby_system.L1Cache_Controller.NP.Ifetch |         343     11.39%     11.39% |         160      5.31%     16.71% |         160      5.31%     22.02% |         160      5.31%     27.33% |         159      5.28%     32.61% |         164      5.45%     38.06% |         160      5.31%     43.37% |         161      5.35%     48.72% |         160      5.31%     54.04% |         165      5.48%     59.52% |         161      5.35%     64.86% |         160      5.31%     70.18% |         160      5.31%     75.49% |         183      6.08%     81.57% |         185      6.14%     87.71% |         185      6.14%     93.86% |         185      6.14%    100.00% (Unspecified)
board.cache_hierarchy.ruby_system.L1Cache_Controller.NP.Ifetch::total         3011                       (Unspecified)
board.cache_hierarchy.ruby_system.L1Cache_Controller.NP.Store |         395     41.19%     41.19% |          27      2.82%     44.00% |          27      2.82%     46.82% |          27      2.82%     49.64% |          27      2.82%     52.45% |          27      2.82%     55.27% |          27      2.82%     58.08% |          27      2.82%     60.90% |          27      2.82%     63.71% |          27      2.82%     66.53% |          27      2.82%     69.34% |          27      2.82%     72.16% |          27      2.82%     74.97% |          60      6.26%     81.23% |          60      6.26%     87.49% |          60      6.26%     93.74% |          60      6.26%    100.00% (Unspecified)
board.cache_hierarchy.ruby_system.L1Cache_Controller.NP.Store::total          959                       (Unspecified)
board.cache_hierarchy.ruby_system.L1Cache_Controller.NP.Inv |          10    100.00%    100.00% |           0      0.00%    100.00% |           0      0.00%    100.00% |           0      0.00%    100.00% |           0      0.00%    100.00% |           0      0.00%    100.00% |           0      0.00%    100.00% |           0      0.00%    100.00% |           0      0.00%    100.00% |           0      0.00%    100.00% |           0      0.00%    100.00% |           0      0.00%    100.00% |           0      0.00%    100.00% |           0      0.00%    100.00% |           0      0.00%    100.00% |           0      0.00%    100.00% |           0      0.00%    100.00% (Unspecified)
board.cache_hierarchy.ruby_system.L1Cache_Controller.NP.Inv::total           10                       (Unspecified)
board.cache_hierarchy.ruby_system.L1Cache_Controller.I.Load |          31     53.45%     53.45% |           1      1.72%     55.17% |           1      1.72%     56.90% |           1      1.72%     58.62% |           1      1.72%     60.34% |           1      1.72%     62.07% |           1      1.72%     63.79% |           1      1.72%     65.52% |           1      1.72%     67.24% |           2      3.45%     70.69% |           3      5.17%     75.86% |           3      5.17%     81.03% |           3      5.17%     86.21% |           3      5.17%     91.38% |           2      3.45%     94.83% |           1      1.72%     96.55% |           2      3.45%    100.00% (Unspecified)
board.cache_hierarchy.ruby_system.L1Cache_Controller.I.Load::total           58                       (Unspecified)
board.cache_hierarchy.ruby_system.L1Cache_Controller.I.Store |           1      0.00%      0.00% |        1959      6.02%      6.03% |        2047      6.29%     12.32% |        2047      6.29%     18.62% |        2047      6.29%     24.91% |        2048      6.30%     31.21% |        2047      6.29%     37.50% |        2047      6.29%     43.80% |        2047      6.29%     50.09% |        2048      6.30%     56.39% |        2047      6.29%     62.68% |        2047      6.29%     68.98% |        2029      6.24%     75.22% |        1977      6.08%     81.30% |        2048      6.30%     87.60% |        2046      6.29%     93.89% |        1988      6.11%    100.00% (Unspecified)
board.cache_hierarchy.ruby_system.L1Cache_Controller.I.Store::total        32520                       (Unspecified)
board.cache_hierarchy.ruby_system.L1Cache_Controller.I.L1_Replacement |          58    100.00%    100.00% |           0      0.00%    100.00% |           0      0.00%    100.00% |           0      0.00%    100.00% |           0      0.00%    100.00% |           0      0.00%    100.00% |           0      0.00%    100.00% |           0      0.00%    100.00% |           0      0.00%    100.00% |           0      0.00%    100.00% |           0      0.00%    100.00% |           0      0.00%    100.00% |           0      0.00%    100.00% |           0      0.00%    100.00% |           0      0.00%    100.00% |           0      0.00%    100.00% |           0      0.00%    100.00% (Unspecified)
board.cache_hierarchy.ruby_system.L1Cache_Controller.I.L1_Replacement::total           58                       (Unspecified)
board.cache_hierarchy.ruby_system.L1Cache_Controller.S.Load |         280      5.22%      5.22% |          65      1.21%      6.44% |          73      1.36%      7.80% |          71      1.32%      9.12% |          73      1.36%     10.49% |          79      1.47%     11.96% |          70      1.31%     13.27% |          72      1.34%     14.61% |          75      1.40%     16.01% |         100      1.87%     17.88% |          90      1.68%     19.56% |          88      1.64%     21.20% |          90      1.68%     22.88% |         181      3.38%     26.25% |         968     18.06%     44.32% |        1523     28.42%     72.74% |        1461     27.26%    100.00% (Unspecified)
board.cache_hierarchy.ruby_system.L1Cache_Controller.S.Load::total         5359                       (Unspecified)
board.cache_hierarchy.ruby_system.L1Cache_Controller.S.Ifetch |       20352      4.80%      4.80% |       25175      5.93%     10.73% |       25221      5.94%     16.67% |       25229      5.95%     22.62% |       25236      5.95%     28.56% |       25243      5.95%     34.51% |       25236      5.95%     40.46% |       25233      5.95%     46.40% |       25234      5.95%     52.35% |       25259      5.95%     58.30% |       25231      5.95%     64.25% |       25230      5.95%     70.19% |       25231      5.95%     76.14% |       25274      5.96%     82.10% |       25331      5.97%     88.06% |       25325      5.97%     94.03% |       25325      5.97%    100.00% (Unspecified)
board.cache_hierarchy.ruby_system.L1Cache_Controller.S.Ifetch::total       424365                       (Unspecified)
board.cache_hierarchy.ruby_system.L1Cache_Controller.S.Store |          34     15.04%     15.04% |          13      5.75%     20.80% |          13      5.75%     26.55% |          13      5.75%     32.30% |          13      5.75%     38.05% |          12      5.31%     43.36% |          13      5.75%     49.12% |          13      5.75%     54.87% |          13      5.75%     60.62% |          13      5.75%     66.37% |          13      5.75%     72.12% |          14      6.19%     78.32% |          13      5.75%     84.07% |          12      5.31%     89.38% |           9      3.98%     93.36% |           8      3.54%     96.90% |           7      3.10%    100.00% (Unspecified)
board.cache_hierarchy.ruby_system.L1Cache_Controller.S.Store::total          226                       (Unspecified)
board.cache_hierarchy.ruby_system.L1Cache_Controller.S.Inv |          74     31.36%     31.36% |           9      3.81%     35.17% |           9      3.81%     38.98% |          10      4.24%     43.22% |          10      4.24%     47.46% |          11      4.66%     52.12% |           9      3.81%     55.93% |          10      4.24%     60.17% |          10      4.24%     64.41% |          13      5.51%     69.92% |          14      5.93%     75.85% |           9      3.81%     79.66% |           9      3.81%     83.47% |           8      3.39%     86.86% |           8      3.39%     90.25% |          10      4.24%     94.49% |          13      5.51%    100.00% (Unspecified)
board.cache_hierarchy.ruby_system.L1Cache_Controller.S.Inv::total          236                       (Unspecified)
board.cache_hierarchy.ruby_system.L1Cache_Controller.S.L1_Replacement |         465     99.15%     99.15% |           0      0.00%     99.15% |           0      0.00%     99.15% |           0      0.00%     99.15% |           0      0.00%     99.15% |           2      0.43%     99.57% |           0      0.00%     99.57% |           0      0.00%     99.57% |           0      0.00%     99.57% |           2      0.43%    100.00% |           0      0.00%    100.00% |           0      0.00%    100.00% |           0      0.00%    100.00% |           0      0.00%    100.00% |           0      0.00%    100.00% |           0      0.00%    100.00% |           0      0.00%    100.00% (Unspecified)
board.cache_hierarchy.ruby_system.L1Cache_Controller.S.L1_Replacement::total          469                       (Unspecified)
board.cache_hierarchy.ruby_system.L1Cache_Controller.E.Load |        1589      5.59%      5.59% |        1919      6.75%     12.34% |        1916      6.74%     19.08% |        1916      6.74%     25.82% |        1916      6.74%     32.56% |        1916      6.74%     39.30% |        1920      6.75%     46.06% |        1916      6.74%     52.80% |        1916      6.74%     59.54% |        1916      6.74%     66.28% |        1916      6.74%     73.02% |        1916      6.74%     79.76% |        1916      6.74%     86.50% |        1811      6.37%     92.88% |        1035      3.64%     96.52% |         465      1.64%     98.15% |         525      1.85%    100.00% (Unspecified)
board.cache_hierarchy.ruby_system.L1Cache_Controller.E.Load::total        28424                       (Unspecified)
board.cache_hierarchy.ruby_system.L1Cache_Controller.E.Store |          16     84.21%     84.21% |           0      0.00%     84.21% |           0      0.00%     84.21% |           0      0.00%     84.21% |           0      0.00%     84.21% |           0      0.00%     84.21% |           0      0.00%     84.21% |           0      0.00%     84.21% |           0      0.00%     84.21% |           0      0.00%     84.21% |           0      0.00%     84.21% |           0      0.00%     84.21% |           0      0.00%     84.21% |           0      0.00%     84.21% |           1      5.26%     89.47% |           1      5.26%     94.74% |           1      5.26%    100.00% (Unspecified)
board.cache_hierarchy.ruby_system.L1Cache_Controller.E.Store::total           19                       (Unspecified)
board.cache_hierarchy.ruby_system.L1Cache_Controller.E.L1_Replacement |          11    100.00%    100.00% |           0      0.00%    100.00% |           0      0.00%    100.00% |           0      0.00%    100.00% |           0      0.00%    100.00% |           0      0.00%    100.00% |           0      0.00%    100.00% |           0      0.00%    100.00% |           0      0.00%    100.00% |           0      0.00%    100.00% |           0      0.00%    100.00% |           0      0.00%    100.00% |           0      0.00%    100.00% |           0      0.00%    100.00% |           0      0.00%    100.00% |           0      0.00%    100.00% |           0      0.00%    100.00% (Unspecified)
board.cache_hierarchy.ruby_system.L1Cache_Controller.E.L1_Replacement::total           11                       (Unspecified)
board.cache_hierarchy.ruby_system.L1Cache_Controller.E.Fwd_GETS |           6     15.00%     15.00% |           6     15.00%     30.00% |           2      5.00%     35.00% |           2      5.00%     40.00% |           3      7.50%     47.50% |           2      5.00%     52.50% |           3      7.50%     60.00% |           2      5.00%     65.00% |           2      5.00%     70.00% |           2      5.00%     75.00% |           2      5.00%     80.00% |           2      5.00%     85.00% |           2      5.00%     90.00% |           4     10.00%    100.00% |           0      0.00%    100.00% |           0      0.00%    100.00% |           0      0.00%    100.00% (Unspecified)
board.cache_hierarchy.ruby_system.L1Cache_Controller.E.Fwd_GETS::total           40                       (Unspecified)
board.cache_hierarchy.ruby_system.L1Cache_Controller.M.Load |       12098      3.85%      3.85% |       18906      6.02%      9.87% |       18872      6.01%     15.88% |       18876      6.01%     21.89% |       18876      6.01%     27.90% |       18882      6.01%     33.91% |       18873      6.01%     39.92% |       18874      6.01%     45.93% |       18873      6.01%     51.94% |       18863      6.01%     57.95% |       18850      6.00%     63.95% |       18850      6.00%     69.95% |       18850      6.00%     75.95% |       18902      6.02%     81.97% |       18862      6.01%     87.98% |       18881      6.01%     93.99% |       18878      6.01%    100.00% (Unspecified)
board.cache_hierarchy.ruby_system.L1Cache_Controller.M.Load::total       314066                       (Unspecified)
board.cache_hierarchy.ruby_system.L1Cache_Controller.M.Store |       22382      8.62%      8.62% |       14843      5.71%     14.33% |       14755      5.68%     20.01% |       14755      5.68%     25.69% |       14755      5.68%     31.37% |       14755      5.68%     37.05% |       14755      5.68%     42.73% |       14755      5.68%     48.41% |       14755      5.68%     54.09% |       14754      5.68%     59.78% |       14755      5.68%     65.46% |       14754      5.68%     71.14% |       14773      5.69%     76.82% |       15085      5.81%     82.63% |       15016      5.78%     88.41% |       15022      5.78%     94.20% |       15078      5.80%    100.00% (Unspecified)
board.cache_hierarchy.ruby_system.L1Cache_Controller.M.Store::total       259747                       (Unspecified)
board.cache_hierarchy.ruby_system.L1Cache_Controller.M.L1_Replacement |         330    100.00%    100.00% |           0      0.00%    100.00% |           0      0.00%    100.00% |           0      0.00%    100.00% |           0      0.00%    100.00% |           0      0.00%    100.00% |           0      0.00%    100.00% |           0      0.00%    100.00% |           0      0.00%    100.00% |           0      0.00%    100.00% |           0      0.00%    100.00% |           0      0.00%    100.00% |           0      0.00%    100.00% |           0      0.00%    100.00% |           0      0.00%    100.00% |           0      0.00%    100.00% |           0      0.00%    100.00% (Unspecified)
board.cache_hierarchy.ruby_system.L1Cache_Controller.M.L1_Replacement::total          330                       (Unspecified)
board.cache_hierarchy.ruby_system.L1Cache_Controller.M.Fwd_GETX |          38      0.12%      0.12% |        1973      6.03%      6.14% |        2061      6.30%     12.44% |        2061      6.30%     18.74% |        2061      6.30%     25.03% |        2061      6.30%     31.33% |        2061      6.30%     37.63% |        2061      6.30%     43.92% |        2061      6.30%     50.22% |        2061      6.30%     56.52% |        2061      6.30%     62.82% |        2050      6.26%     69.08% |        2029      6.20%     75.28% |        1981      6.05%     81.33% |        2051      6.27%     87.60% |        2061      6.30%     93.89% |        1999      6.11%    100.00% (Unspecified)
board.cache_hierarchy.ruby_system.L1Cache_Controller.M.Fwd_GETX::total        32731                       (Unspecified)
board.cache_hierarchy.ruby_system.L1Cache_Controller.M.Fwd_GETS |         417     71.90%     71.90% |          11      1.90%     73.79% |          11      1.90%     75.69% |          11      1.90%     77.59% |          11      1.90%     79.48% |          11      1.90%     81.38% |          11      1.90%     83.28% |          11      1.90%     85.17% |          11      1.90%     87.07% |          12      2.07%     89.14% |          11      1.90%     91.03% |           7      1.21%     92.24% |           7      1.21%     93.45% |           8      1.38%     94.83% |           7      1.21%     96.03% |          10      1.72%     97.76% |          13      2.24%    100.00% (Unspecified)
board.cache_hierarchy.ruby_system.L1Cache_Controller.M.Fwd_GETS::total          580                       (Unspecified)
board.cache_hierarchy.ruby_system.L1Cache_Controller.IS.Data_Exclusive |          68      3.51%      3.51% |         138      7.13%     10.65% |         133      6.87%     17.52% |         132      6.82%     24.34% |         133      6.87%     31.21% |         132      6.82%     38.04% |         133      6.87%     44.91% |         132      6.82%     51.73% |         132      6.82%     58.55% |         132      6.82%     65.37% |         132      6.82%     72.20% |         132      6.82%     79.02% |         132      6.82%     85.84% |         127      6.56%     92.40% |          73      3.77%     96.18% |          35      1.81%     97.98% |          39      2.02%    100.00% (Unspecified)
board.cache_hierarchy.ruby_system.L1Cache_Controller.IS.Data_Exclusive::total         1935                       (Unspecified)
board.cache_hierarchy.ruby_system.L1Cache_Controller.IS.DataS_fromL1 |          52      8.39%      8.39% |          20      3.23%     11.61% |          21      3.39%     15.00% |          19      3.06%     18.06% |          20      3.23%     21.29% |          21      3.39%     24.68% |          18      2.90%     27.58% |          19      3.06%     30.65% |          19      3.06%     33.71% |          20      3.23%     36.94% |          21      3.39%     40.32% |          21      3.39%     43.71% |          21      3.39%     47.10% |          29      4.68%     51.77% |          77     12.42%     64.19% |         112     18.06%     82.26% |         110     17.74%    100.00% (Unspecified)
board.cache_hierarchy.ruby_system.L1Cache_Controller.IS.DataS_fromL1::total          620                       (Unspecified)
board.cache_hierarchy.ruby_system.L1Cache_Controller.IS.Data_all_Acks |         381     11.72%     11.72% |         166      5.10%     16.82% |         170      5.23%     22.05% |         174      5.35%     27.40% |         171      5.26%     32.66% |         177      5.44%     38.10% |         174      5.35%     43.45% |         175      5.38%     48.83% |         174      5.35%     54.18% |         180      5.54%     59.72% |         175      5.38%     65.10% |         174      5.35%     70.45% |         174      5.35%     75.80% |         190      5.84%     81.64% |         198      6.09%     87.73% |         200      6.15%     93.88% |         199      6.12%    100.00% (Unspecified)
board.cache_hierarchy.ruby_system.L1Cache_Controller.IS.Data_all_Acks::total         3252                       (Unspecified)
board.cache_hierarchy.ruby_system.L1Cache_Controller.IM.Data |           0      0.00%      0.00% |           0      0.00%      0.00% |           0      0.00%      0.00% |           0      0.00%      0.00% |           0      0.00%      0.00% |           0      0.00%      0.00% |           0      0.00%      0.00% |           0      0.00%      0.00% |           0      0.00%      0.00% |           0      0.00%      0.00% |           0      0.00%      0.00% |           0      0.00%      0.00% |           0      0.00%      0.00% |           0      0.00%      0.00% |           1    100.00%    100.00% |           0      0.00%    100.00% |           0      0.00%    100.00% (Unspecified)
board.cache_hierarchy.ruby_system.L1Cache_Controller.IM.Data::total            1                       (Unspecified)
board.cache_hierarchy.ruby_system.L1Cache_Controller.IM.Data_all_Acks |         396      1.18%      1.18% |        1986      5.93%      7.12% |        2074      6.20%     13.31% |        2074      6.20%     19.51% |        2074      6.20%     25.70% |        2075      6.20%     31.90% |        2074      6.20%     38.09% |        2074      6.20%     44.29% |        2074      6.20%     50.48% |        2075      6.20%     56.68% |        2074      6.20%     62.88% |        2074      6.20%     69.07% |        2056      6.14%     75.21% |        2037      6.08%     81.30% |        2107      6.29%     87.59% |        2106      6.29%     93.88% |        2048      6.12%    100.00% (Unspecified)
board.cache_hierarchy.ruby_system.L1Cache_Controller.IM.Data_all_Acks::total        33478                       (Unspecified)
board.cache_hierarchy.ruby_system.L1Cache_Controller.SM.Ack |          38     15.51%     15.51% |          13      5.31%     20.82% |          14      5.71%     26.53% |          13      5.31%     31.84% |          13      5.31%     37.14% |          12      4.90%     42.04% |          14      5.71%     47.76% |          14      5.71%     53.47% |          14      5.71%     59.18% |          13      5.31%     64.49% |          14      5.71%     70.20% |          18      7.35%     77.55% |          14      5.71%     83.27% |          14      5.71%     88.98% |          11      4.49%     93.47% |           9      3.67%     97.14% |           7      2.86%    100.00% (Unspecified)
board.cache_hierarchy.ruby_system.L1Cache_Controller.SM.Ack::total          245                       (Unspecified)
board.cache_hierarchy.ruby_system.L1Cache_Controller.SM.Ack_all |          34     14.98%     14.98% |          13      5.73%     20.70% |          13      5.73%     26.43% |          13      5.73%     32.16% |          13      5.73%     37.89% |          12      5.29%     43.17% |          13      5.73%     48.90% |          13      5.73%     54.63% |          13      5.73%     60.35% |          13      5.73%     66.08% |          13      5.73%     71.81% |          14      6.17%     77.97% |          13      5.73%     83.70% |          12      5.29%     88.99% |          10      4.41%     93.39% |           8      3.52%     96.92% |           7      3.08%    100.00% (Unspecified)
board.cache_hierarchy.ruby_system.L1Cache_Controller.SM.Ack_all::total          227                       (Unspecified)
board.cache_hierarchy.ruby_system.L1Cache_Controller.M_I.WB_Ack |         341    100.00%    100.00% |           0      0.00%    100.00% |           0      0.00%    100.00% |           0      0.00%    100.00% |           0      0.00%    100.00% |           0      0.00%    100.00% |           0      0.00%    100.00% |           0      0.00%    100.00% |           0      0.00%    100.00% |           0      0.00%    100.00% |           0      0.00%    100.00% |           0      0.00%    100.00% |           0      0.00%    100.00% |           0      0.00%    100.00% |           0      0.00%    100.00% |           0      0.00%    100.00% |           0      0.00%    100.00% (Unspecified)
board.cache_hierarchy.ruby_system.L1Cache_Controller.M_I.WB_Ack::total          341                       (Unspecified)
board.cache_hierarchy.ruby_system.L2Cache_Controller.L1_GET_INSTR |         134      4.45%      4.45% |         163      5.41%      9.86% |         220      7.30%     17.16% |         245      8.13%     25.30% |         216      7.17%     32.47% |         190      6.31%     38.78% |         213      7.07%     45.85% |         152      5.05%     50.90% |         200      6.64%     57.54% |         201      6.67%     64.21% |         188      6.24%     70.45% |         193      6.41%     76.86% |         200      6.64%     83.50% |         205      6.81%     90.31% |         167      5.54%     95.85% |         125      4.15%    100.00% (Unspecified)
board.cache_hierarchy.ruby_system.L2Cache_Controller.L1_GET_INSTR::total         3012                       (Unspecified)
board.cache_hierarchy.ruby_system.L2Cache_Controller.L1_GETS |         148      5.29%      5.29% |         210      7.51%     12.80% |         195      6.97%     19.78% |         202      7.22%     27.00% |         183      6.55%     33.55% |         184      6.58%     40.13% |         171      6.12%     46.24% |         140      5.01%     51.25% |         151      5.40%     56.65% |         188      6.72%     63.38% |         191      6.83%     70.21% |         134      4.79%     75.00% |         164      5.87%     80.87% |         167      5.97%     86.84% |         187      6.69%     93.53% |         181      6.47%    100.00% (Unspecified)
board.cache_hierarchy.ruby_system.L2Cache_Controller.L1_GETS::total         2796                       (Unspecified)
board.cache_hierarchy.ruby_system.L2Cache_Controller.L1_GETX |      219704     93.19%     93.19% |       15199      6.45%     99.64% |          52      0.02%     99.66% |          53      0.02%     99.68% |          87      0.04%     99.72% |          96      0.04%     99.76% |          76      0.03%     99.79% |          80      0.03%     99.83% |          80      0.03%     99.86% |          47      0.02%     99.88% |          50      0.02%     99.90% |          32      0.01%     99.92% |          64      0.03%     99.94% |          63      0.03%     99.97% |          43      0.02%     99.99% |          30      0.01%    100.00% (Unspecified)
board.cache_hierarchy.ruby_system.L2Cache_Controller.L1_GETX::total       235756                       (Unspecified)
board.cache_hierarchy.ruby_system.L2Cache_Controller.L1_UPGRADE |           1      0.44%      0.44% |          62     27.19%     27.63% |          29     12.72%     40.35% |          14      6.14%     46.49% |          14      6.14%     52.63% |          33     14.47%     67.11% |           4      1.75%     68.86% |           5      2.19%     71.05% |           2      0.88%     71.93% |           2      0.88%     72.81% |          27     11.84%     84.65% |           0      0.00%     84.65% |          14      6.14%     90.79% |           3      1.32%     92.11% |          17      7.46%     99.56% |           1      0.44%    100.00% (Unspecified)
board.cache_hierarchy.ruby_system.L2Cache_Controller.L1_UPGRADE::total          228                       (Unspecified)
board.cache_hierarchy.ruby_system.L2Cache_Controller.L1_PUTX |           8      2.35%      2.35% |          18      5.28%      7.62% |          15      4.40%     12.02% |          27      7.92%     19.94% |          46     13.49%     33.43% |          31      9.09%     42.52% |          30      8.80%     51.32% |          15      4.40%     55.72% |          15      4.40%     60.12% |          13      3.81%     63.93% |          31      9.09%     73.02% |          12      3.52%     76.54% |          27      7.92%     84.46% |          30      8.80%     93.26% |          15      4.40%     97.65% |           8      2.35%    100.00% (Unspecified)
board.cache_hierarchy.ruby_system.L2Cache_Controller.L1_PUTX::total          341                       (Unspecified)
board.cache_hierarchy.ruby_system.L2Cache_Controller.Mem_Data |          59      5.16%      5.16% |          74      6.47%     11.63% |          78      6.82%     18.44% |          79      6.91%     25.35% |          93      8.13%     33.48% |          93      8.13%     41.61% |          73      6.38%     47.99% |          69      6.03%     54.02% |          71      6.21%     60.23% |          75      6.56%     66.78% |          58      5.07%     71.85% |          44      3.85%     75.70% |          64      5.59%     81.29% |          78      6.82%     88.11% |          67      5.86%     93.97% |          69      6.03%    100.00% (Unspecified)
board.cache_hierarchy.ruby_system.L2Cache_Controller.Mem_Data::total         1144                       (Unspecified)
board.cache_hierarchy.ruby_system.L2Cache_Controller.WB_Data |          23      3.97%      3.97% |          93     16.03%     20.00% |          62     10.69%     30.69% |          35      6.03%     36.72% |          30      5.17%     41.90% |          59     10.17%     52.07% |          19      3.28%     55.34% |          21      3.62%     58.97% |          20      3.45%     62.41% |          40      6.90%     69.31% |          42      7.24%     76.55% |          18      3.10%     79.66% |          27      4.66%     84.31% |          32      5.52%     89.83% |          34      5.86%     95.69% |          25      4.31%    100.00% (Unspecified)
board.cache_hierarchy.ruby_system.L2Cache_Controller.WB_Data::total          580                       (Unspecified)
board.cache_hierarchy.ruby_system.L2Cache_Controller.WB_Data_clean |          12     30.00%     30.00% |           0      0.00%     30.00% |           1      2.50%     32.50% |          13     32.50%     65.00% |           1      2.50%     67.50% |           1      2.50%     70.00% |           1      2.50%     72.50% |           0      0.00%     72.50% |           1      2.50%     75.00% |           1      2.50%     77.50% |           2      5.00%     82.50% |           0      0.00%     82.50% |           1      2.50%     85.00% |           1      2.50%     87.50% |           3      7.50%     95.00% |           2      5.00%    100.00% (Unspecified)
board.cache_hierarchy.ruby_system.L2Cache_Controller.WB_Data_clean::total           40                       (Unspecified)
board.cache_hierarchy.ruby_system.L2Cache_Controller.Unblock |          35      5.65%      5.65% |          93     15.00%     20.65% |          63     10.16%     30.81% |          48      7.74%     38.55% |          31      5.00%     43.55% |          60      9.68%     53.23% |          20      3.23%     56.45% |          21      3.39%     59.84% |          21      3.39%     63.23% |          41      6.61%     69.84% |          44      7.10%     76.94% |          18      2.90%     79.84% |          28      4.52%     84.35% |          33      5.32%     89.68% |          37      5.97%     95.65% |          27      4.35%    100.00% (Unspecified)
board.cache_hierarchy.ruby_system.L2Cache_Controller.Unblock::total          620                       (Unspecified)
board.cache_hierarchy.ruby_system.L2Cache_Controller.Exclusive_Unblock |       24626     69.10%     69.10% |        8287     23.25%     92.35% |         197      0.55%     92.90% |         193      0.54%     93.44% |         237      0.66%     94.11% |         253      0.71%     94.82% |         203      0.57%     95.39% |         202      0.57%     95.95% |         200      0.56%     96.52% |         178      0.50%     97.01% |         195      0.55%     97.56% |         147      0.41%     97.97% |         199      0.56%     98.53% |         186      0.52%     99.05% |         180      0.51%     99.56% |         157      0.44%    100.00% (Unspecified)
board.cache_hierarchy.ruby_system.L2Cache_Controller.Exclusive_Unblock::total        35640                       (Unspecified)
board.cache_hierarchy.ruby_system.L2Cache_Controller.NP.L1_GET_INSTR |          25      6.56%      6.56% |          25      6.56%     13.12% |          27      7.09%     20.21% |          28      7.35%     27.56% |          26      6.82%     34.38% |          25      6.56%     40.94% |          20      5.25%     46.19% |          18      4.72%     50.92% |          20      5.25%     56.17% |          24      6.30%     62.47% |          23      6.04%     68.50% |          22      5.77%     74.28% |          27      7.09%     81.36% |          27      7.09%     88.45% |          21      5.51%     93.96% |          23      6.04%    100.00% (Unspecified)
board.cache_hierarchy.ruby_system.L2Cache_Controller.NP.L1_GET_INSTR::total          381                       (Unspecified)
board.cache_hierarchy.ruby_system.L2Cache_Controller.NP.L1_GETS |           0      0.00%      0.00% |           2      3.17%      3.17% |           0      0.00%      3.17% |           0      0.00%      3.17% |          16     25.40%     28.57% |           1      1.59%     30.16% |           2      3.17%     33.33% |           0      0.00%     33.33% |           1      1.59%     34.92% |          17     26.98%     61.90% |           1      1.59%     63.49% |           2      3.17%     66.67% |           1      1.59%     68.25% |           0      0.00%     68.25% |           3      4.76%     73.02% |          17     26.98%    100.00% (Unspecified)
board.cache_hierarchy.ruby_system.L2Cache_Controller.NP.L1_GETS::total           63                       (Unspecified)
board.cache_hierarchy.ruby_system.L2Cache_Controller.NP.L1_GETX |          34      4.86%      4.86% |          47      6.71%     11.57% |          51      7.29%     18.86% |          51      7.29%     26.14% |          51      7.29%     33.43% |          67      9.57%     43.00% |          51      7.29%     50.29% |          51      7.29%     57.57% |          50      7.14%     64.71% |          34      4.86%     69.57% |          34      4.86%     74.43% |          20      2.86%     77.29% |          36      5.14%     82.43% |          51      7.29%     89.71% |          43      6.14%     95.86% |          29      4.14%    100.00% (Unspecified)
board.cache_hierarchy.ruby_system.L2Cache_Controller.NP.L1_GETX::total          700                       (Unspecified)
board.cache_hierarchy.ruby_system.L2Cache_Controller.SS.L1_GET_INSTR |         109      4.14%      4.14% |         138      5.25%      9.39% |         193      7.34%     16.72% |         217      8.25%     24.97% |         190      7.22%     32.19% |         165      6.27%     38.46% |         193      7.34%     45.80% |         134      5.09%     50.89% |         180      6.84%     57.73% |         177      6.73%     64.46% |         165      6.27%     70.73% |         171      6.50%     77.23% |         173      6.58%     83.81% |         178      6.77%     90.57% |         146      5.55%     96.12% |         102      3.88%    100.00% (Unspecified)
board.cache_hierarchy.ruby_system.L2Cache_Controller.SS.L1_GET_INSTR::total         2631                       (Unspecified)
board.cache_hierarchy.ruby_system.L2Cache_Controller.SS.L1_GETS |           4      1.67%      1.67% |           2      0.83%      2.50% |          16      6.67%      9.17% |          28     11.67%     20.83% |          16      6.67%     27.50% |           0      0.00%     27.50% |          28     11.67%     39.17% |           2      0.83%     40.00% |          12      5.00%     45.00% |          18      7.50%     52.50% |          26     10.83%     63.33% |           1      0.42%     63.75% |          15      6.25%     70.00% |          14      5.83%     75.83% |          30     12.50%     88.33% |          28     11.67%    100.00% (Unspecified)
board.cache_hierarchy.ruby_system.L2Cache_Controller.SS.L1_GETS::total          240                       (Unspecified)
board.cache_hierarchy.ruby_system.L2Cache_Controller.SS.L1_GETX |           0      0.00%      0.00% |           0      0.00%      0.00% |           0      0.00%      0.00% |           0      0.00%      0.00% |           0      0.00%      0.00% |           0      0.00%      0.00% |           0      0.00%      0.00% |           0      0.00%      0.00% |           0      0.00%      0.00% |           0      0.00%      0.00% |           1    100.00%    100.00% |           0      0.00%    100.00% |           0      0.00%    100.00% |           0      0.00%    100.00% |           0      0.00%    100.00% |           0      0.00%    100.00% (Unspecified)
board.cache_hierarchy.ruby_system.L2Cache_Controller.SS.L1_GETX::total            1                       (Unspecified)
board.cache_hierarchy.ruby_system.L2Cache_Controller.SS.L1_UPGRADE |           1      0.44%      0.44% |          62     27.43%     27.88% |          29     12.83%     40.71% |          14      6.19%     46.90% |          14      6.19%     53.10% |          33     14.60%     67.70% |           4      1.77%     69.47% |           5      2.21%     71.68% |           2      0.88%     72.57% |           2      0.88%     73.45% |          25     11.06%     84.51% |           0      0.00%     84.51% |          14      6.19%     90.71% |           3      1.33%     92.04% |          17      7.52%     99.56% |           1      0.44%    100.00% (Unspecified)
board.cache_hierarchy.ruby_system.L2Cache_Controller.SS.L1_UPGRADE::total          226                       (Unspecified)
board.cache_hierarchy.ruby_system.L2Cache_Controller.M.L1_GETS |         109      5.82%      5.82% |         113      6.04%     11.86% |         116      6.20%     18.06% |         126      6.73%     24.79% |         120      6.41%     31.20% |         123      6.57%     37.77% |         121      6.46%     44.23% |         117      6.25%     50.48% |         117      6.25%     56.73% |         112      5.98%     62.71% |         119      6.36%     69.07% |         113      6.04%     75.11% |         120      6.41%     81.52% |         120      6.41%     87.93% |         117      6.25%     94.18% |         109      5.82%    100.00% (Unspecified)
board.cache_hierarchy.ruby_system.L2Cache_Controller.M.L1_GETS::total         1872                       (Unspecified)
board.cache_hierarchy.ruby_system.L2Cache_Controller.M.L1_GETX |           2      4.26%      4.26% |           2      4.26%      8.51% |           1      2.13%     10.64% |           2      4.26%     14.89% |          20     42.55%     57.45% |           1      2.13%     59.57% |           1      2.13%     61.70% |           1      2.13%     63.83% |           2      4.26%     68.09% |           1      2.13%     70.21% |           1      2.13%     72.34% |           0      0.00%     72.34% |          12     25.53%     97.87% |           0      0.00%     97.87% |           0      0.00%     97.87% |           1      2.13%    100.00% (Unspecified)
board.cache_hierarchy.ruby_system.L2Cache_Controller.M.L1_GETX::total           47                       (Unspecified)
board.cache_hierarchy.ruby_system.L2Cache_Controller.MT.L1_GETS |          35      5.65%      5.65% |          93     15.00%     20.65% |          63     10.16%     30.81% |          48      7.74%     38.55% |          31      5.00%     43.55% |          60      9.68%     53.23% |          20      3.23%     56.45% |          21      3.39%     59.84% |          21      3.39%     63.23% |          41      6.61%     69.84% |          44      7.10%     76.94% |          18      2.90%     79.84% |          28      4.52%     84.35% |          33      5.32%     89.68% |          37      5.97%     95.65% |          27      4.35%    100.00% (Unspecified)
board.cache_hierarchy.ruby_system.L2Cache_Controller.MT.L1_GETS::total          620                       (Unspecified)
board.cache_hierarchy.ruby_system.L2Cache_Controller.MT.L1_GETX |       24480     74.79%     74.79% |        8061     24.63%     99.42% |           0      0.00%     99.42% |           0      0.00%     99.42% |          16      0.05%     99.47% |          28      0.09%     99.55% |          24      0.07%     99.63% |          28      0.09%     99.71% |          28      0.09%     99.80% |          12      0.04%     99.84% |          14      0.04%     99.88% |          12      0.04%     99.91% |          16      0.05%     99.96% |          12      0.04%    100.00% |           0      0.00%    100.00% |           0      0.00%    100.00% (Unspecified)
board.cache_hierarchy.ruby_system.L2Cache_Controller.MT.L1_GETX::total        32731                       (Unspecified)
board.cache_hierarchy.ruby_system.L2Cache_Controller.MT.L1_PUTX |           8      2.35%      2.35% |          18      5.28%      7.62% |          15      4.40%     12.02% |          27      7.92%     19.94% |          46     13.49%     33.43% |          31      9.09%     42.52% |          30      8.80%     51.32% |          15      4.40%     55.72% |          15      4.40%     60.12% |          13      3.81%     63.93% |          31      9.09%     73.02% |          12      3.52%     76.54% |          27      7.92%     84.46% |          30      8.80%     93.26% |          15      4.40%     97.65% |           8      2.35%    100.00% (Unspecified)
board.cache_hierarchy.ruby_system.L2Cache_Controller.MT.L1_PUTX::total          341                       (Unspecified)
board.cache_hierarchy.ruby_system.L2Cache_Controller.ISS.Mem_Data |           0      0.00%      0.00% |           2      3.17%      3.17% |           0      0.00%      3.17% |           0      0.00%      3.17% |          16     25.40%     28.57% |           1      1.59%     30.16% |           2      3.17%     33.33% |           0      0.00%     33.33% |           1      1.59%     34.92% |          17     26.98%     61.90% |           1      1.59%     63.49% |           2      3.17%     66.67% |           1      1.59%     68.25% |           0      0.00%     68.25% |           3      4.76%     73.02% |          17     26.98%    100.00% (Unspecified)
board.cache_hierarchy.ruby_system.L2Cache_Controller.ISS.Mem_Data::total           63                       (Unspecified)
board.cache_hierarchy.ruby_system.L2Cache_Controller.IS.Mem_Data |          25      6.56%      6.56% |          25      6.56%     13.12% |          27      7.09%     20.21% |          28      7.35%     27.56% |          26      6.82%     34.38% |          25      6.56%     40.94% |          20      5.25%     46.19% |          18      4.72%     50.92% |          20      5.25%     56.17% |          24      6.30%     62.47% |          23      6.04%     68.50% |          22      5.77%     74.28% |          27      7.09%     81.36% |          27      7.09%     88.45% |          21      5.51%     93.96% |          23      6.04%    100.00% (Unspecified)
board.cache_hierarchy.ruby_system.L2Cache_Controller.IS.Mem_Data::total          381                       (Unspecified)
board.cache_hierarchy.ruby_system.L2Cache_Controller.IM.Mem_Data |          34      4.86%      4.86% |          47      6.71%     11.57% |          51      7.29%     18.86% |          51      7.29%     26.14% |          51      7.29%     33.43% |          67      9.57%     43.00% |          51      7.29%     50.29% |          51      7.29%     57.57% |          50      7.14%     64.71% |          34      4.86%     69.57% |          34      4.86%     74.43% |          20      2.86%     77.29% |          36      5.14%     82.43% |          51      7.29%     89.71% |          43      6.14%     95.86% |          29      4.14%    100.00% (Unspecified)
board.cache_hierarchy.ruby_system.L2Cache_Controller.IM.Mem_Data::total          700                       (Unspecified)
board.cache_hierarchy.ruby_system.L2Cache_Controller.SS_MB.L1_GETS |           0      0.00%      0.00% |           0      0.00%      0.00% |           0      0.00%      0.00% |           0      0.00%      0.00% |           0      0.00%      0.00% |           0      0.00%      0.00% |           0      0.00%      0.00% |           0      0.00%      0.00% |           0      0.00%      0.00% |           0      0.00%      0.00% |           1    100.00%    100.00% |           0      0.00%    100.00% |           0      0.00%    100.00% |           0      0.00%    100.00% |           0      0.00%    100.00% |           0      0.00%    100.00% (Unspecified)
board.cache_hierarchy.ruby_system.L2Cache_Controller.SS_MB.L1_GETS::total            1                       (Unspecified)
board.cache_hierarchy.ruby_system.L2Cache_Controller.SS_MB.Exclusive_Unblock |           1      0.44%      0.44% |          62     27.31%     27.75% |          29     12.78%     40.53% |          14      6.17%     46.70% |          14      6.17%     52.86% |          33     14.54%     67.40% |           4      1.76%     69.16% |           5      2.20%     71.37% |           2      0.88%     72.25% |           2      0.88%     73.13% |          26     11.45%     84.58% |           0      0.00%     84.58% |          14      6.17%     90.75% |           3      1.32%     92.07% |          17      7.49%     99.56% |           1      0.44%    100.00% (Unspecified)
board.cache_hierarchy.ruby_system.L2Cache_Controller.SS_MB.Exclusive_Unblock::total          227                       (Unspecified)
board.cache_hierarchy.ruby_system.L2Cache_Controller.MT_MB.L1_GETX |      195188     96.50%     96.50% |        7089      3.50%    100.00% |           0      0.00%    100.00% |           0      0.00%    100.00% |           0      0.00%    100.00% |           0      0.00%    100.00% |           0      0.00%    100.00% |           0      0.00%    100.00% |           0      0.00%    100.00% |           0      0.00%    100.00% |           0      0.00%    100.00% |           0      0.00%    100.00% |           0      0.00%    100.00% |           0      0.00%    100.00% |           0      0.00%    100.00% |           0      0.00%    100.00% (Unspecified)
board.cache_hierarchy.ruby_system.L2Cache_Controller.MT_MB.L1_GETX::total       202277                       (Unspecified)
board.cache_hierarchy.ruby_system.L2Cache_Controller.MT_MB.Exclusive_Unblock |       24625     69.54%     69.54% |        8225     23.23%     92.76% |         168      0.47%     93.24% |         179      0.51%     93.74% |         223      0.63%     94.37% |         220      0.62%     94.99% |         199      0.56%     95.56% |         197      0.56%     96.11% |         198      0.56%     96.67% |         176      0.50%     97.17% |         169      0.48%     97.64% |         147      0.42%     98.06% |         185      0.52%     98.58% |         183      0.52%     99.10% |         163      0.46%     99.56% |         156      0.44%    100.00% (Unspecified)
board.cache_hierarchy.ruby_system.L2Cache_Controller.MT_MB.Exclusive_Unblock::total        35413                       (Unspecified)
board.cache_hierarchy.ruby_system.L2Cache_Controller.MT_IIB.WB_Data |          22      4.06%      4.06% |          68     12.55%     16.61% |          61     11.25%     27.86% |          34      6.27%     34.13% |          29      5.35%     39.48% |          59     10.89%     50.37% |          19      3.51%     53.87% |          20      3.69%     57.56% |          20      3.69%     61.25% |          40      7.38%     68.63% |          35      6.46%     75.09% |          18      3.32%     78.41% |          27      4.98%     83.39% |          32      5.90%     89.30% |          34      6.27%     95.57% |          24      4.43%    100.00% (Unspecified)
board.cache_hierarchy.ruby_system.L2Cache_Controller.MT_IIB.WB_Data::total          542                       (Unspecified)
board.cache_hierarchy.ruby_system.L2Cache_Controller.MT_IIB.WB_Data_clean |          12     42.86%     42.86% |           0      0.00%     42.86% |           1      3.57%     46.43% |           2      7.14%     53.57% |           1      3.57%     57.14% |           1      3.57%     60.71% |           1      3.57%     64.29% |           0      0.00%     64.29% |           1      3.57%     67.86% |           1      3.57%     71.43% |           2      7.14%     78.57% |           0      0.00%     78.57% |           1      3.57%     82.14% |           1      3.57%     85.71% |           2      7.14%     92.86% |           2      7.14%    100.00% (Unspecified)
board.cache_hierarchy.ruby_system.L2Cache_Controller.MT_IIB.WB_Data_clean::total           28                       (Unspecified)
board.cache_hierarchy.ruby_system.L2Cache_Controller.MT_IIB.Unblock |           1      2.00%      2.00% |          25     50.00%     52.00% |           1      2.00%     54.00% |          12     24.00%     78.00% |           1      2.00%     80.00% |           0      0.00%     80.00% |           0      0.00%     80.00% |           1      2.00%     82.00% |           0      0.00%     82.00% |           0      0.00%     82.00% |           7     14.00%     96.00% |           0      0.00%     96.00% |           0      0.00%     96.00% |           0      0.00%     96.00% |           1      2.00%     98.00% |           1      2.00%    100.00% (Unspecified)
board.cache_hierarchy.ruby_system.L2Cache_Controller.MT_IIB.Unblock::total           50                       (Unspecified)
board.cache_hierarchy.ruby_system.L2Cache_Controller.MT_IB.WB_Data |           1      2.63%      2.63% |          25     65.79%     68.42% |           1      2.63%     71.05% |           1      2.63%     73.68% |           1      2.63%     76.32% |           0      0.00%     76.32% |           0      0.00%     76.32% |           1      2.63%     78.95% |           0      0.00%     78.95% |           0      0.00%     78.95% |           7     18.42%     97.37% |           0      0.00%     97.37% |           0      0.00%     97.37% |           0      0.00%     97.37% |           0      0.00%     97.37% |           1      2.63%    100.00% (Unspecified)
board.cache_hierarchy.ruby_system.L2Cache_Controller.MT_IB.WB_Data::total           38                       (Unspecified)
board.cache_hierarchy.ruby_system.L2Cache_Controller.MT_IB.WB_Data_clean |           0      0.00%      0.00% |           0      0.00%      0.00% |           0      0.00%      0.00% |          11     91.67%     91.67% |           0      0.00%     91.67% |           0      0.00%     91.67% |           0      0.00%     91.67% |           0      0.00%     91.67% |           0      0.00%     91.67% |           0      0.00%     91.67% |           0      0.00%     91.67% |           0      0.00%     91.67% |           0      0.00%     91.67% |           0      0.00%     91.67% |           1      8.33%    100.00% |           0      0.00%    100.00% (Unspecified)
board.cache_hierarchy.ruby_system.L2Cache_Controller.MT_IB.WB_Data_clean::total           12                       (Unspecified)
board.cache_hierarchy.ruby_system.L2Cache_Controller.MT_SB.L1_UPGRADE |           0      0.00%      0.00% |           0      0.00%      0.00% |           0      0.00%      0.00% |           0      0.00%      0.00% |           0      0.00%      0.00% |           0      0.00%      0.00% |           0      0.00%      0.00% |           0      0.00%      0.00% |           0      0.00%      0.00% |           0      0.00%      0.00% |           2    100.00%    100.00% |           0      0.00%    100.00% |           0      0.00%    100.00% |           0      0.00%    100.00% |           0      0.00%    100.00% |           0      0.00%    100.00% (Unspecified)
board.cache_hierarchy.ruby_system.L2Cache_Controller.MT_SB.L1_UPGRADE::total            2                       (Unspecified)
board.cache_hierarchy.ruby_system.L2Cache_Controller.MT_SB.Unblock |          34      5.96%      5.96% |          68     11.93%     17.89% |          62     10.88%     28.77% |          36      6.32%     35.09% |          30      5.26%     40.35% |          60     10.53%     50.88% |          20      3.51%     54.39% |          20      3.51%     57.89% |          21      3.68%     61.58% |          41      7.19%     68.77% |          37      6.49%     75.26% |          18      3.16%     78.42% |          28      4.91%     83.33% |          33      5.79%     89.12% |          36      6.32%     95.44% |          26      4.56%    100.00% (Unspecified)
board.cache_hierarchy.ruby_system.L2Cache_Controller.MT_SB.Unblock::total          570                       (Unspecified)
board.cache_hierarchy.ruby_system.RequestType.LD.latency_hist_seqr::bucket_size          128                       (Unspecified)
board.cache_hierarchy.ruby_system.RequestType.LD.latency_hist_seqr::max_bucket         1279                       (Unspecified)
board.cache_hierarchy.ruby_system.RequestType.LD.latency_hist_seqr::samples       350644                       (Unspecified)
board.cache_hierarchy.ruby_system.RequestType.LD.latency_hist_seqr::mean     1.197049                       (Unspecified)
board.cache_hierarchy.ruby_system.RequestType.LD.latency_hist_seqr::gmean     1.025177                       (Unspecified)
board.cache_hierarchy.ruby_system.RequestType.LD.latency_hist_seqr::stdev     3.667001                       (Unspecified)
board.cache_hierarchy.ruby_system.RequestType.LD.latency_hist_seqr |      350581     99.98%     99.98% |          60      0.02%    100.00% |           1      0.00%    100.00% |           0      0.00%    100.00% |           1      0.00%    100.00% |           0      0.00%    100.00% |           0      0.00%    100.00% |           0      0.00%    100.00% |           0      0.00%    100.00% |           1      0.00%    100.00% (Unspecified)
board.cache_hierarchy.ruby_system.RequestType.LD.latency_hist_seqr::total       350644                       (Unspecified)
board.cache_hierarchy.ruby_system.RequestType.LD.hit_latency_hist_seqr::bucket_size            1                       (Unspecified)
board.cache_hierarchy.ruby_system.RequestType.LD.hit_latency_hist_seqr::max_bucket            9                       (Unspecified)
board.cache_hierarchy.ruby_system.RequestType.LD.hit_latency_hist_seqr::samples       347849                       (Unspecified)
board.cache_hierarchy.ruby_system.RequestType.LD.hit_latency_hist_seqr::mean     1.000006                       (Unspecified)
board.cache_hierarchy.ruby_system.RequestType.LD.hit_latency_hist_seqr::gmean     1.000004                       (Unspecified)
board.cache_hierarchy.ruby_system.RequestType.LD.hit_latency_hist_seqr::stdev     0.002398                       (Unspecified)
board.cache_hierarchy.ruby_system.RequestType.LD.hit_latency_hist_seqr |           0      0.00%      0.00% |      347847    100.00%    100.00% |           2      0.00%    100.00% |           0      0.00%    100.00% |           0      0.00%    100.00% |           0      0.00%    100.00% |           0      0.00%    100.00% |           0      0.00%    100.00% |           0      0.00%    100.00% |           0      0.00%    100.00% (Unspecified)
board.cache_hierarchy.ruby_system.RequestType.LD.hit_latency_hist_seqr::total       347849                       (Unspecified)
board.cache_hierarchy.ruby_system.RequestType.LD.miss_latency_hist_seqr::bucket_size          128                       (Unspecified)
board.cache_hierarchy.ruby_system.RequestType.LD.miss_latency_hist_seqr::max_bucket         1279                       (Unspecified)
board.cache_hierarchy.ruby_system.RequestType.LD.miss_latency_hist_seqr::samples         2795                       (Unspecified)
board.cache_hierarchy.ruby_system.RequestType.LD.miss_latency_hist_seqr::mean    25.719857                       (Unspecified)
board.cache_hierarchy.ruby_system.RequestType.LD.miss_latency_hist_seqr::gmean    22.622077                       (Unspecified)
board.cache_hierarchy.ruby_system.RequestType.LD.miss_latency_hist_seqr::stdev    32.880816                       (Unspecified)
board.cache_hierarchy.ruby_system.RequestType.LD.miss_latency_hist_seqr |        2732     97.75%     97.75% |          60      2.15%     99.89% |           1      0.04%     99.93% |           0      0.00%     99.93% |           1      0.04%     99.96% |           0      0.00%     99.96% |           0      0.00%     99.96% |           0      0.00%     99.96% |           0      0.00%     99.96% |           1      0.04%    100.00% (Unspecified)
board.cache_hierarchy.ruby_system.RequestType.LD.miss_latency_hist_seqr::total         2795                       (Unspecified)
board.cache_hierarchy.ruby_system.RequestType.ST.latency_hist_seqr::bucket_size          256                       (Unspecified)
board.cache_hierarchy.ruby_system.RequestType.ST.latency_hist_seqr::max_bucket         2559                       (Unspecified)
board.cache_hierarchy.ruby_system.RequestType.ST.latency_hist_seqr::samples       193197                       (Unspecified)
board.cache_hierarchy.ruby_system.RequestType.ST.latency_hist_seqr::mean     1.620201                       (Unspecified)
board.cache_hierarchy.ruby_system.RequestType.ST.latency_hist_seqr::gmean     1.025812                       (Unspecified)
board.cache_hierarchy.ruby_system.RequestType.ST.latency_hist_seqr::stdev    11.471055                       (Unspecified)
board.cache_hierarchy.ruby_system.RequestType.ST.latency_hist_seqr |      193189    100.00%    100.00% |           1      0.00%    100.00% |           0      0.00%    100.00% |           0      0.00%    100.00% |           6      0.00%    100.00% |           1      0.00%    100.00% |           0      0.00%    100.00% |           0      0.00%    100.00% |           0      0.00%    100.00% |           0      0.00%    100.00% (Unspecified)
[...]
board.processor.cores9.core.executeStats0.numMemRefs        73098                       # Number of memory refs (Count)
board.processor.cores9.core.executeStats0.numMiscRegReads       101124                       # Number of times the Misc registers were read (Count)
board.processor.cores9.core.executeStats0.numMiscRegWrites            1                       # Number of times the Misc registers were written (Count)
board.processor.cores9.core.executeStats0.numVecAluAccesses            0                       # Number of vector alu accesses (Count)
board.processor.cores9.core.executeStats0.numDiscardedOps            0                       # Number of ops (including micro ops) which were discarded before commit (Count)
board.processor.cores9.core.fetch.predictedBranches        18996                       # Number of branches that fetch has predicted taken (Count)
board.processor.cores9.core.fetch.cycles       649583                       # Number of cycles fetch has run and was not squashing or blocked (Cycle)
board.processor.cores9.core.fetch.squashCycles         4606                       # Number of cycles fetch has spent squashing (Cycle)
board.processor.cores9.core.fetch.miscStallCycles           33                       # Number of cycles fetch has spent waiting on interrupts, or bad addresses, or out of MSHRs (Cycle)
board.processor.cores9.core.fetch.pendingTrapStallCycles          232                       # Number of stall cycles due to pending traps (Cycle)
board.processor.cores9.core.fetch.cacheLines        25441                       # Number of cache lines fetched (Count)
board.processor.cores9.core.fetch.icacheSquashes           79                       # Number of outstanding Icache misses that were squashed (Count)
board.processor.cores9.core.fetch.nisnDist::samples       680135                       # Number of instructions fetched each cycle (Total) (Count)
board.processor.cores9.core.fetch.nisnDist::mean     0.597099                       # Number of instructions fetched each cycle (Total) (Count)
board.processor.cores9.core.fetch.nisnDist::stdev     2.016578                       # Number of instructions fetched each cycle (Total) (Count)
board.processor.cores9.core.fetch.nisnDist::underflows            0      0.00%      0.00% # Number of instructions fetched each cycle (Total) (Count)
board.processor.cores9.core.fetch.nisnDist::0       621027     91.31%     91.31% # Number of instructions fetched each cycle (Total) (Count)
board.processor.cores9.core.fetch.nisnDist::1          213      0.03%     91.34% # Number of instructions fetched each cycle (Total) (Count)
board.processor.cores9.core.fetch.nisnDist::2         6167      0.91%     92.25% # Number of instructions fetched each cycle (Total) (Count)
board.processor.cores9.core.fetch.nisnDist::3           94      0.01%     92.26% # Number of instructions fetched each cycle (Total) (Count)
board.processor.cores9.core.fetch.nisnDist::4         2133      0.31%     92.57% # Number of instructions fetched each cycle (Total) (Count)
board.processor.cores9.core.fetch.nisnDist::5          165      0.02%     92.60% # Number of instructions fetched each cycle (Total) (Count)
board.processor.cores9.core.fetch.nisnDist::6         2159      0.32%     92.92% # Number of instructions fetched each cycle (Total) (Count)
board.processor.cores9.core.fetch.nisnDist::7        14448      2.12%     95.04% # Number of instructions fetched each cycle (Total) (Count)
board.processor.cores9.core.fetch.nisnDist::8        33729      4.96%    100.00% # Number of instructions fetched each cycle (Total) (Count)
board.processor.cores9.core.fetch.nisnDist::overflows            0      0.00%    100.00% # Number of instructions fetched each cycle (Total) (Count)
board.processor.cores9.core.fetch.nisnDist::min_value            0                       # Number of instructions fetched each cycle (Total) (Count)
board.processor.cores9.core.fetch.nisnDist::max_value            8                       # Number of instructions fetched each cycle (Total) (Count)
board.processor.cores9.core.fetch.nisnDist::total       680135                       # Number of instructions fetched each cycle (Total) (Count)
board.processor.cores9.core.fetchStats0.numInsts       240612                       # Number of instructions fetched (thread level) (Count)
board.processor.cores9.core.fetchStats0.numOps            0                       # Number of ops (including micro ops) fetched (thread level) (Count)
board.processor.cores9.core.fetchStats0.fetchRate     0.353667                       # Number of inst fetches per cycle ((Count/Cycle))
board.processor.cores9.core.fetchStats0.numBranches        25806                       # Number of branches fetched (Count)
board.processor.cores9.core.fetchStats0.branchRate     0.037931                       # Number of branch fetches per cycle (Ratio)
board.processor.cores9.core.fetchStats0.icacheStallCycles        27984                       # ICache total stall cycles (Cycle)
board.processor.cores9.core.fetchStats0.numFetchSuspends            0                       # Number of times Execute suspended instruction fetching (Count)
board.processor.cores9.core.iew.idleCycles            0                       # Number of cycles IEW is idle (Cycle)
board.processor.cores9.core.iew.squashCycles         2188                       # Number of cycles IEW is squashing (Cycle)
board.processor.cores9.core.iew.blockCycles       573203                       # Number of cycles IEW is blocking (Cycle)
board.processor.cores9.core.iew.unblockCycles         4510                       # Number of cycles IEW is unblocking (Cycle)
board.processor.cores9.core.iew.dispatchedInsts       307120                       # Number of instructions dispatched to IQ (Count)
board.processor.cores9.core.iew.dispSquashedInsts            2                       # Number of squashed instructions skipped by dispatch (Count)
board.processor.cores9.core.iew.dispLoadInsts        76952                       # Number of dispatched load instructions (Count)
board.processor.cores9.core.iew.dispStoreInsts        25283                       # Number of dispatched store instructions (Count)
board.processor.cores9.core.iew.dispNonSpecInsts         4125                       # Number of dispatched non-speculative instructions (Count)
board.processor.cores9.core.iew.iqFullEvents          412                       # Number of times the IQ has become full, causing a stall (Count)
board.processor.cores9.core.iew.lsqFullEvents            1                       # Number of times the LSQ has become full, causing a stall (Count)
board.processor.cores9.core.iew.memOrderViolationEvents         2055                       # Number of memory order violations (Count)
board.processor.cores9.core.iew.predictedTakenIncorrect            7                       # Number of branches that were predicted taken incorrectly (Count)
board.processor.cores9.core.iew.predictedNotTakenIncorrect          134                       # Number of branches that were predicted not taken incorrectly (Count)
board.processor.cores9.core.iew.branchMispredicts          141                       # Number of branch mispredicts detected at execute (Count)
board.processor.cores9.core.iew.instsToCommit       219420                       # Cumulative count of insts sent to commit (Count)
board.processor.cores9.core.iew.writebackCount       219291                       # Cumulative count of insts written-back (Count)
board.processor.cores9.core.iew.producerInst       161490                       # Number of instructions producing a value (Count)
board.processor.cores9.core.iew.consumerInst       255851                       # Number of instructions consuming a value (Count)
board.processor.cores9.core.iew.wbRate       0.322328                       # Insts written-back per cycle ((Count/Cycle))
board.processor.cores9.core.iew.wbFanout     0.631188                       # Average fanout of values written-back ((Count/Count))
board.processor.cores9.core.interrupts.clk_domain.clock         5328                       # Clock period in ticks (Tick)
board.processor.cores9.core.lsq0.forwLoads         4292                       # Number of loads that had data forwarded from stores (Count)
board.processor.cores9.core.lsq0.squashedLoads        43613                       # Number of loads squashed (Count)
board.processor.cores9.core.lsq0.ignoredResponses            1                       # Number of memory responses ignored because the instruction is squashed (Count)
board.processor.cores9.core.lsq0.memOrderViolation         2055                       # Number of memory ordering violations (Count)
board.processor.cores9.core.lsq0.squashedStores        12554                       # Number of stores squashed (Count)
board.processor.cores9.core.lsq0.rescheduledLoads            0                       # Number of loads that were rescheduled (Count)
board.processor.cores9.core.lsq0.blockedByCache            0                       # Number of times an access to memory failed due to the cache being blocked (Count)
board.processor.cores9.core.lsq0.loadToUse::samples        33339                       # Distribution of cycle latency between the first time a load is issued and its completion (Unspecified)
board.processor.cores9.core.lsq0.loadToUse::mean    18.618735                       # Distribution of cycle latency between the first time a load is issued and its completion (Unspecified)
board.processor.cores9.core.lsq0.loadToUse::stdev    62.200262                       # Distribution of cycle latency between the first time a load is issued and its completion (Unspecified)
board.processor.cores9.core.lsq0.loadToUse::0-9        31125     93.36%     93.36% # Distribution of cycle latency between the first time a load is issued and its completion (Unspecified)
board.processor.cores9.core.lsq0.loadToUse::10-19            9      0.03%     93.39% # Distribution of cycle latency between the first time a load is issued and its completion (Unspecified)
board.processor.cores9.core.lsq0.loadToUse::20-29          139      0.42%     93.80% # Distribution of cycle latency between the first time a load is issued and its completion (Unspecified)
board.processor.cores9.core.lsq0.loadToUse::30-39           16      0.05%     93.85% # Distribution of cycle latency between the first time a load is issued and its completion (Unspecified)
board.processor.cores9.core.lsq0.loadToUse::40-49           24      0.07%     93.92% # Distribution of cycle latency between the first time a load is issued and its completion (Unspecified)
board.processor.cores9.core.lsq0.loadToUse::50-59            7      0.02%     93.94% # Distribution of cycle latency between the first time a load is issued and its completion (Unspecified)
board.processor.cores9.core.lsq0.loadToUse::60-69            1      0.00%     93.95% # Distribution of cycle latency between the first time a load is issued and its completion (Unspecified)
board.processor.cores9.core.lsq0.loadToUse::70-79           25      0.07%     94.02% # Distribution of cycle latency between the first time a load is issued and its completion (Unspecified)
board.processor.cores9.core.lsq0.loadToUse::80-89            3      0.01%     94.03% # Distribution of cycle latency between the first time a load is issued and its completion (Unspecified)
board.processor.cores9.core.lsq0.loadToUse::100-109           27      0.08%     94.11% # Distribution of cycle latency between the first time a load is issued and its completion (Unspecified)
board.processor.cores9.core.lsq0.loadToUse::110-119            5      0.01%     94.13% # Distribution of cycle latency between the first time a load is issued and its completion (Unspecified)
board.processor.cores9.core.lsq0.loadToUse::120-129            1      0.00%     94.13% # Distribution of cycle latency between the first time a load is issued and its completion (Unspecified)
board.processor.cores9.core.lsq0.loadToUse::130-139           44      0.13%     94.26% # Distribution of cycle latency between the first time a load is issued and its completion (Unspecified)
board.processor.cores9.core.lsq0.loadToUse::140-149            7      0.02%     94.28% # Distribution of cycle latency between the first time a load is issued and its completion (Unspecified)
board.processor.cores9.core.lsq0.loadToUse::160-169           58      0.17%     94.46% # Distribution of cycle latency between the first time a load is issued and its completion (Unspecified)
board.processor.cores9.core.lsq0.loadToUse::170-179           10      0.03%     94.49% # Distribution of cycle latency between the first time a load is issued and its completion (Unspecified)
board.processor.cores9.core.lsq0.loadToUse::190-199           77      0.23%     94.72% # Distribution of cycle latency between the first time a load is issued and its completion (Unspecified)
board.processor.cores9.core.lsq0.loadToUse::200-209            6      0.02%     94.74% # Distribution of cycle latency between the first time a load is issued and its completion (Unspecified)
board.processor.cores9.core.lsq0.loadToUse::210-219            1      0.00%     94.74% # Distribution of cycle latency between the first time a load is issued and its completion (Unspecified)
board.processor.cores9.core.lsq0.loadToUse::220-229          102      0.31%     95.04% # Distribution of cycle latency between the first time a load is issued and its completion (Unspecified)
board.processor.cores9.core.lsq0.loadToUse::230-239            8      0.02%     95.07% # Distribution of cycle latency between the first time a load is issued and its completion (Unspecified)
board.processor.cores9.core.lsq0.loadToUse::240-249            1      0.00%     95.07% # Distribution of cycle latency between the first time a load is issued and its completion (Unspecified)
board.processor.cores9.core.lsq0.loadToUse::250-259          108      0.32%     95.40% # Distribution of cycle latency between the first time a load is issued and its completion (Unspecified)
board.processor.cores9.core.lsq0.loadToUse::260-269           90      0.27%     95.67% # Distribution of cycle latency between the first time a load is issued and its completion (Unspecified)
board.processor.cores9.core.lsq0.loadToUse::280-289         1445      4.33%    100.00% # Distribution of cycle latency between the first time a load is issued and its completion (Unspecified)
board.processor.cores9.core.lsq0.loadToUse::min_value            2                       # Distribution of cycle latency between the first time a load is issued and its completion (Unspecified)
board.processor.cores9.core.lsq0.loadToUse::max_value          285                       # Distribution of cycle latency between the first time a load is issued and its completion (Unspecified)
board.processor.cores9.core.lsq0.loadToUse::total        33339                       # Distribution of cycle latency between the first time a load is issued and its completion (Unspecified)
board.processor.cores9.core.mmu.dtb.rdAccesses        56133                       # TLB accesses on read requests (Count)
board.processor.cores9.core.mmu.dtb.wrAccesses        16965                       # TLB accesses on write requests (Count)
board.processor.cores9.core.mmu.dtb.rdMisses           77                       # TLB misses on read requests (Count)
board.processor.cores9.core.mmu.dtb.wrMisses           15                       # TLB misses on write requests (Count)
board.processor.cores9.core.mmu.dtb.walker.power_state.pwrStateResidencyTicks::UNDEFINED    488364147                       # Cumulative time (in ticks) in various power states (Tick)
board.processor.cores9.core.mmu.itb.rdAccesses            0                       # TLB accesses on read requests (Count)
board.processor.cores9.core.mmu.itb.wrAccesses        25478                       # TLB accesses on write requests (Count)
board.processor.cores9.core.mmu.itb.rdMisses            0                       # TLB misses on read requests (Count)
board.processor.cores9.core.mmu.itb.wrMisses           89                       # TLB misses on write requests (Count)
board.processor.cores9.core.mmu.itb.walker.power_state.pwrStateResidencyTicks::UNDEFINED    488364147                       # Cumulative time (in ticks) in various power states (Tick)
board.processor.cores9.core.power_state.pwrStateResidencyTicks::ON    488364147                       # Cumulative time (in ticks) in various power states (Tick)
board.processor.cores9.core.rename.squashCycles         2188                       # Number of cycles rename is squashing (Cycle)
board.processor.cores9.core.rename.idleCycles        17773                       # Number of cycles rename is idle (Cycle)
board.processor.cores9.core.rename.blockCycles       594587                       # Number of cycles rename is blocking (Cycle)
board.processor.cores9.core.rename.serializeStallCycles            0                       # count of cycles rename stalled for serializing inst (Cycle)
board.processor.cores9.core.rename.runCycles        39941                       # Number of cycles rename is running (Cycle)
board.processor.cores9.core.rename.unblockCycles        25646                       # Number of cycles rename is unblocking (Cycle)
board.processor.cores9.core.rename.renamedInsts       323917                       # Number of instructions processed by rename (Count)
board.processor.cores9.core.rename.IQFullEvents        22532                       # Number of times rename has blocked due to IQ full (Count)
board.processor.cores9.core.rename.LQFullEvents          112                       # Number of times rename has blocked due to LQ full (Count)
board.processor.cores9.core.rename.SQFullEvents          563                       # Number of times rename has blocked due to SQ full (Count)
board.processor.cores9.core.rename.renamedOperands       493244                       # Number of destination operands rename has renamed (Count)
board.processor.cores9.core.rename.lookups       991826                       # Number of register rename lookups that rename has made (Count)
board.processor.cores9.core.rename.intLookups       432268                       # Number of integer rename lookups (Count)
board.processor.cores9.core.rename.fpLookups           26                       # Number of floating rename lookups (Count)
board.processor.cores9.core.rename.committedMaps       196362                       # Number of HB maps that are committed (Count)
board.processor.cores9.core.rename.undoneMaps       296882                       # Number of HB maps that are undone due to squashing (Count)
board.processor.cores9.core.rename.serializing            0                       # count of serializing insts renamed (Count)
board.processor.cores9.core.rename.tempSerializing            0                       # count of temporary serializing insts renamed (Count)
board.processor.cores9.core.rename.skidInsts        59391                       # count of insts added to the skid buffer (Count)
board.processor.cores9.core.rob.reads          959635                       # The number of ROB reads (Count)
board.processor.cores9.core.rob.writes         636962                       # The number of ROB writes (Count)
board.processor.cores9.core.thread_0.numInsts        77732                       # Number of Instructions committed (Count)
board.processor.cores9.core.thread_0.numOps       133179                       # Number of Ops committed (Count)
board.processor.cores9.core.thread_0.numMemRefs            0                       # Number of Memory References (Count)
board.workload.inst.arm                             0                       # number of arm instructions executed (Count)
board.workload.inst.quiesce                         0                       # number of quiesce instructions executed (Count)

---------- End Simulation Statistics   ----------
