gem5 Simulator System.  https://www.gem5.org
gem5 is copyrighted software; use the --copyright option for details.

gem5 version 23.0.1.0
gem5 compiled Nov 30 2023 11:45:00
gem5 started Dec  4 2023 16:40:56
gem5 executing on quzi, pid 6957
command line: gem5.opt -re --outdir=exp_52/Medium3BFS ./run.py

Global frequency set at 1000000000000 ticks per second
Beginning BFS ...
Finished BFS.
Finished simulation.
