
---------- Begin Simulation Statistics ----------
simSeconds                                   0.000206                       # Number of seconds simulated (Second)
simTicks                                    205580547                       # Number of ticks simulated (Tick)
finalTick                                   533317815                       # Number of ticks from beginning of simulation (restored from checkpoints and never reset) (Tick)
simFreq                                  1000000000000                       # The number of ticks per simulated second ((Tick/Second))
hostSeconds                                     30.80                       # Real time elapsed on the host (Second)
hostTickRate                                  6674348                       # The number of ticks simulated per host second (ticks/s) ((Tick/Second))
hostMemory                                    1763708                       # Number of bytes of host memory used (Byte)
simInsts                                      1708932                       # Number of instructions simulated (Count)
simOps                                        2648826                       # Number of ops (including micro ops) simulated (Count)
hostInstRate                                    55482                       # Simulator instruction rate (inst/s) ((Count/Second))
hostOpRate                                      85996                       # Simulator op (including micro ops) rate (op/s) ((Count/Second))
board.cache_hierarchy.ruby_system.delayHistogram::bucket_size         1024                       # delay histogram for all message (Unspecified)
board.cache_hierarchy.ruby_system.delayHistogram::max_bucket        10239                       # delay histogram for all message (Unspecified)
board.cache_hierarchy.ruby_system.delayHistogram::samples        92420                       # delay histogram for all message (Unspecified)
board.cache_hierarchy.ruby_system.delayHistogram::mean     9.788195                       # delay histogram for all message (Unspecified)
board.cache_hierarchy.ruby_system.delayHistogram::stdev   109.263517                       # delay histogram for all message (Unspecified)
board.cache_hierarchy.ruby_system.delayHistogram |       92348     99.92%     99.92% |          38      0.04%     99.96% |          11      0.01%     99.98% |           3      0.00%     99.98% |           5      0.01%     99.98% |           7      0.01%     99.99% |           2      0.00%     99.99% |           2      0.00%    100.00% |           3      0.00%    100.00% |           1      0.00%    100.00% # delay histogram for all message (Unspecified)
board.cache_hierarchy.ruby_system.delayHistogram::total        92420                       # delay histogram for all message (Unspecified)
board.cache_hierarchy.ruby_system.m_outstandReqHistSeqr::bucket_size            2                       (Unspecified)
board.cache_hierarchy.ruby_system.m_outstandReqHistSeqr::max_bucket           19                       (Unspecified)
board.cache_hierarchy.ruby_system.m_outstandReqHistSeqr::samples      1108374                       (Unspecified)
board.cache_hierarchy.ruby_system.m_outstandReqHistSeqr::mean     1.236181                       (Unspecified)
board.cache_hierarchy.ruby_system.m_outstandReqHistSeqr::gmean     1.167822                       (Unspecified)
board.cache_hierarchy.ruby_system.m_outstandReqHistSeqr::stdev     0.532378                       (Unspecified)
board.cache_hierarchy.ruby_system.m_outstandReqHistSeqr |      872125     78.69%     78.69% |      230658     20.81%     99.50% |        4430      0.40%     99.90% |         611      0.06%     99.95% |         247      0.02%     99.97% |         122      0.01%     99.98% |          67      0.01%     99.99% |          80      0.01%    100.00% |          34      0.00%    100.00% |           0      0.00%    100.00% (Unspecified)
board.cache_hierarchy.ruby_system.m_outstandReqHistSeqr::total      1108374                       (Unspecified)
board.cache_hierarchy.ruby_system.m_latencyHistSeqr::bucket_size          256                       (Unspecified)
board.cache_hierarchy.ruby_system.m_latencyHistSeqr::max_bucket         2559                       (Unspecified)
board.cache_hierarchy.ruby_system.m_latencyHistSeqr::samples      1108711                       (Unspecified)
board.cache_hierarchy.ruby_system.m_latencyHistSeqr::mean     5.750810                       (Unspecified)
board.cache_hierarchy.ruby_system.m_latencyHistSeqr::gmean     1.183348                       (Unspecified)
board.cache_hierarchy.ruby_system.m_latencyHistSeqr::stdev    28.295431                       (Unspecified)
board.cache_hierarchy.ruby_system.m_latencyHistSeqr |     1107220     99.87%     99.87% |        1354      0.12%     99.99% |          69      0.01%     99.99% |          26      0.00%    100.00% |          13      0.00%    100.00% |          22      0.00%    100.00% |           4      0.00%    100.00% |           3      0.00%    100.00% |           0      0.00%    100.00% |           0      0.00%    100.00% (Unspecified)
board.cache_hierarchy.ruby_system.m_latencyHistSeqr::total      1108711                       (Unspecified)
board.cache_hierarchy.ruby_system.m_hitLatencyHistSeqr::bucket_size           32                       (Unspecified)
board.cache_hierarchy.ruby_system.m_hitLatencyHistSeqr::max_bucket          319                       (Unspecified)
board.cache_hierarchy.ruby_system.m_hitLatencyHistSeqr::samples      1069925                       (Unspecified)
board.cache_hierarchy.ruby_system.m_hitLatencyHistSeqr::mean     1.000921                       (Unspecified)
board.cache_hierarchy.ruby_system.m_hitLatencyHistSeqr::gmean     1.000249                       (Unspecified)
board.cache_hierarchy.ruby_system.m_hitLatencyHistSeqr::stdev     0.385544                       (Unspecified)
board.cache_hierarchy.ruby_system.m_hitLatencyHistSeqr |     1069922    100.00%    100.00% |           0      0.00%    100.00% |           1      0.00%    100.00% |           0      0.00%    100.00% |           0      0.00%    100.00% |           0      0.00%    100.00% |           0      0.00%    100.00% |           0      0.00%    100.00% |           2      0.00%    100.00% |           0      0.00%    100.00% (Unspecified)
board.cache_hierarchy.ruby_system.m_hitLatencyHistSeqr::total      1069925                       (Unspecified)
board.cache_hierarchy.ruby_system.m_missLatencyHistSeqr::bucket_size          256                       (Unspecified)
board.cache_hierarchy.ruby_system.m_missLatencyHistSeqr::max_bucket         2559                       (Unspecified)
board.cache_hierarchy.ruby_system.m_missLatencyHistSeqr::samples        38786                       (Unspecified)
board.cache_hierarchy.ruby_system.m_missLatencyHistSeqr::mean   136.778116                       (Unspecified)
board.cache_hierarchy.ruby_system.m_missLatencyHistSeqr::gmean   122.170537                       (Unspecified)
board.cache_hierarchy.ruby_system.m_missLatencyHistSeqr::stdev    71.356931                       (Unspecified)
board.cache_hierarchy.ruby_system.m_missLatencyHistSeqr |       37297     96.16%     96.16% |        1352      3.49%     99.65% |          69      0.18%     99.82% |          26      0.07%     99.89% |          13      0.03%     99.93% |          22      0.06%     99.98% |           4      0.01%     99.99% |           3      0.01%    100.00% |           0      0.00%    100.00% |           0      0.00%    100.00% (Unspecified)
board.cache_hierarchy.ruby_system.m_missLatencyHistSeqr::total        38786                       (Unspecified)
board.cache_hierarchy.ruby_system.delayVCHist.vnet_0::bucket_size         1024                       # delay histogram for vnet_0 (Unspecified)
board.cache_hierarchy.ruby_system.delayVCHist.vnet_0::max_bucket        10239                       # delay histogram for vnet_0 (Unspecified)
board.cache_hierarchy.ruby_system.delayVCHist.vnet_0::samples        45607                       # delay histogram for vnet_0 (Unspecified)
board.cache_hierarchy.ruby_system.delayVCHist.vnet_0::mean    15.555529                       # delay histogram for vnet_0 (Unspecified)
board.cache_hierarchy.ruby_system.delayVCHist.vnet_0::stdev   154.865357                       # delay histogram for vnet_0 (Unspecified)
board.cache_hierarchy.ruby_system.delayVCHist.vnet_0 |       45535     99.84%     99.84% |          38      0.08%     99.93% |          11      0.02%     99.95% |           3      0.01%     99.96% |           5      0.01%     99.97% |           7      0.02%     99.98% |           2      0.00%     99.99% |           2      0.00%     99.99% |           3      0.01%    100.00% |           1      0.00%    100.00% # delay histogram for vnet_0 (Unspecified)
board.cache_hierarchy.ruby_system.delayVCHist.vnet_0::total        45607                       # delay histogram for vnet_0 (Unspecified)
board.cache_hierarchy.ruby_system.delayVCHist.vnet_1::bucket_size           16                       # delay histogram for vnet_1 (Unspecified)
board.cache_hierarchy.ruby_system.delayVCHist.vnet_1::max_bucket          159                       # delay histogram for vnet_1 (Unspecified)
board.cache_hierarchy.ruby_system.delayVCHist.vnet_1::samples        43863                       # delay histogram for vnet_1 (Unspecified)
board.cache_hierarchy.ruby_system.delayVCHist.vnet_1::mean     4.449810                       # delay histogram for vnet_1 (Unspecified)
board.cache_hierarchy.ruby_system.delayVCHist.vnet_1::stdev    12.187163                       # delay histogram for vnet_1 (Unspecified)
board.cache_hierarchy.ruby_system.delayVCHist.vnet_1 |       39435     89.90%     89.90% |        1983      4.52%     94.43% |        1381      3.15%     97.57% |         780      1.78%     99.35% |         266      0.61%     99.96% |          18      0.04%    100.00% |           0      0.00%    100.00% |           0      0.00%    100.00% |           0      0.00%    100.00% |           0      0.00%    100.00% # delay histogram for vnet_1 (Unspecified)
board.cache_hierarchy.ruby_system.delayVCHist.vnet_1::total        43863                       # delay histogram for vnet_1 (Unspecified)
board.cache_hierarchy.ruby_system.delayVCHist.vnet_2::bucket_size            1                       # delay histogram for vnet_2 (Unspecified)
board.cache_hierarchy.ruby_system.delayVCHist.vnet_2::max_bucket            9                       # delay histogram for vnet_2 (Unspecified)
board.cache_hierarchy.ruby_system.delayVCHist.vnet_2::samples         2950                       # delay histogram for vnet_2 (Unspecified)
board.cache_hierarchy.ruby_system.delayVCHist.vnet_2::mean     0.000678                       # delay histogram for vnet_2 (Unspecified)
board.cache_hierarchy.ruby_system.delayVCHist.vnet_2::stdev     0.036823                       # delay histogram for vnet_2 (Unspecified)
board.cache_hierarchy.ruby_system.delayVCHist.vnet_2 |        2949     99.97%     99.97% |           0      0.00%     99.97% |           1      0.03%    100.00% |           0      0.00%    100.00% |           0      0.00%    100.00% |           0      0.00%    100.00% |           0      0.00%    100.00% |           0      0.00%    100.00% |           0      0.00%    100.00% |           0      0.00%    100.00% # delay histogram for vnet_2 (Unspecified)
board.cache_hierarchy.ruby_system.delayVCHist.vnet_2::total         2950                       # delay histogram for vnet_2 (Unspecified)
board.cache_hierarchy.ruby_system.Directory_Controller.Fetch         1614      0.00%      0.00% (Unspecified)
board.cache_hierarchy.ruby_system.Directory_Controller.Memory_Data         1614      0.00%      0.00% (Unspecified)
board.cache_hierarchy.ruby_system.Directory_Controller.I.Fetch         1614      0.00%      0.00% (Unspecified)
board.cache_hierarchy.ruby_system.Directory_Controller.IM.Memory_Data         1614      0.00%      0.00% (Unspecified)
board.cache_hierarchy.ruby_system.L1Cache_Controller.Load |       13334      4.69%      4.69% |       16926      5.95%     10.64% |       16904      5.94%     16.59% |       16926      5.95%     22.54% |       16948      5.96%     28.50% |       16973      5.97%     34.47% |       16943      5.96%     40.42% |       16955      5.96%     46.39% |       16943      5.96%     52.34% |       16938      5.96%     58.30% |       16943      5.96%     64.26% |       16925      5.95%     70.21% |       16940      5.96%     76.17% |       16977      5.97%     82.14% |       16936      5.96%     88.09% |       16915      5.95%     94.04% |       16947      5.96%    100.00% (Unspecified)
board.cache_hierarchy.ruby_system.L1Cache_Controller.Load::total       284373                       (Unspecified)
board.cache_hierarchy.ruby_system.L1Cache_Controller.Ifetch |       20494      3.66%      3.66% |       33557      5.99%      9.64% |       33564      5.99%     15.63% |       33752      6.02%     21.65% |       33841      6.04%     27.68% |       33823      6.03%     33.72% |       33880      6.04%     39.76% |       33813      6.03%     45.79% |       33718      6.01%     51.81% |       33794      6.03%     57.83% |       33847      6.04%     63.87% |       33833      6.03%     69.91% |       33852      6.04%     75.95% |       33782      6.03%     81.97% |       33723      6.02%     87.99% |       33743      6.02%     94.01% |       33607      5.99%    100.00% (Unspecified)
board.cache_hierarchy.ruby_system.L1Cache_Controller.Ifetch::total       560623                       (Unspecified)
board.cache_hierarchy.ruby_system.L1Cache_Controller.Store |       22740      8.62%      8.62% |       15089      5.72%     14.34% |       14793      5.61%     19.95% |       15105      5.73%     25.68% |       15105      5.73%     31.41% |       15101      5.73%     37.14% |       15110      5.73%     42.87% |       15100      5.73%     48.59% |       15093      5.72%     54.31% |       15100      5.73%     60.04% |       15107      5.73%     65.77% |       15108      5.73%     71.50% |       15105      5.73%     77.23% |       15085      5.72%     82.95% |       15091      5.72%     88.67% |       15089      5.72%     94.39% |       14793      5.61%    100.00% (Unspecified)
board.cache_hierarchy.ruby_system.L1Cache_Controller.Store::total       263714                       (Unspecified)
board.cache_hierarchy.ruby_system.L1Cache_Controller.Inv |          73     17.80%     17.80% |          10      2.44%     20.24% |          15      3.66%     23.90% |          24      5.85%     29.76% |          26      6.34%     36.10% |          23      5.61%     41.71% |          20      4.88%     46.59% |          19      4.63%     51.22% |          21      5.12%     56.34% |          25      6.10%     62.44% |          25      6.10%     68.54% |          25      6.10%     74.63% |          25      6.10%     80.73% |          22      5.37%     86.10% |          21      5.12%     91.22% |          17      4.15%     95.37% |          19      4.63%    100.00% (Unspecified)
board.cache_hierarchy.ruby_system.L1Cache_Controller.Inv::total          410                       (Unspecified)
board.cache_hierarchy.ruby_system.L1Cache_Controller.L1_Replacement |         858      3.17%      3.17% |        1638      6.05%      9.23% |        1609      5.95%     15.17% |        1641      6.07%     21.24% |        1642      6.07%     27.31% |        1643      6.07%     33.38% |        1639      6.06%     39.44% |        1643      6.07%     45.51% |        1640      6.06%     51.57% |        1642      6.07%     57.64% |        1641      6.07%     63.70% |        1642      6.07%     69.77% |        1646      6.08%     75.86% |        1642      6.07%     81.93% |        1640      6.06%     87.99% |        1640      6.06%     94.05% |        1610      5.95%    100.00% (Unspecified)
board.cache_hierarchy.ruby_system.L1Cache_Controller.L1_Replacement::total        27056                       (Unspecified)
board.cache_hierarchy.ruby_system.L1Cache_Controller.Fwd_GETX |          37     25.34%     25.34% |          13      8.90%     34.25% |          15     10.27%     44.52% |           6      4.11%     48.63% |           9      6.16%     54.79% |           7      4.79%     59.59% |           7      4.79%     64.38% |           7      4.79%     69.18% |           4      2.74%     71.92% |           6      4.11%     76.03% |           4      2.74%     78.77% |           9      6.16%     84.93% |           5      3.42%     88.36% |           4      2.74%     91.10% |           5      3.42%     94.52% |           4      2.74%     97.26% |           4      2.74%    100.00% (Unspecified)
board.cache_hierarchy.ruby_system.L1Cache_Controller.Fwd_GETX::total          146                       (Unspecified)
board.cache_hierarchy.ruby_system.L1Cache_Controller.Fwd_GETS |         401     16.75%     16.75% |        1738     72.60%     89.35% |          90      3.76%     93.11% |          15      0.63%     93.73% |          12      0.50%     94.24% |          11      0.46%     94.70% |          14      0.58%     95.28% |          11      0.46%     95.74% |          11      0.46%     96.20% |          12      0.50%     96.70% |          15      0.63%     97.33% |          14      0.58%     97.91% |          14      0.58%     98.50% |           9      0.38%     98.87% |           9      0.38%     99.25% |          11      0.46%     99.71% |           7      0.29%    100.00% (Unspecified)
board.cache_hierarchy.ruby_system.L1Cache_Controller.Fwd_GETS::total         2394                       (Unspecified)
board.cache_hierarchy.ruby_system.L1Cache_Controller.Data |           0      0.00%      0.00% |           0      0.00%      0.00% |           1      1.69%      1.69% |           3      5.08%      6.78% |           7     11.86%     18.64% |           3      5.08%     23.73% |           6     10.17%     33.90% |           3      5.08%     38.98% |           1      1.69%     40.68% |           6     10.17%     50.85% |           5      8.47%     59.32% |           7     11.86%     71.19% |           7     11.86%     83.05% |           1      1.69%     84.75% |           4      6.78%     91.53% |           3      5.08%     96.61% |           2      3.39%    100.00% (Unspecified)
board.cache_hierarchy.ruby_system.L1Cache_Controller.Data::total           59                       (Unspecified)
board.cache_hierarchy.ruby_system.L1Cache_Controller.Data_Exclusive |          56      2.59%      2.59% |        1815     84.03%     86.62% |          91      4.21%     90.83% |          14      0.65%     91.48% |          14      0.65%     92.13% |          14      0.65%     92.78% |          15      0.69%     93.47% |          15      0.69%     94.17% |          13      0.60%     94.77% |          13      0.60%     95.37% |          14      0.65%     96.02% |          14      0.65%     96.67% |          16      0.74%     97.41% |          14      0.65%     98.06% |          13      0.60%     98.66% |          15      0.69%     99.35% |          14      0.65%    100.00% (Unspecified)
board.cache_hierarchy.ruby_system.L1Cache_Controller.Data_Exclusive::total         2160                       (Unspecified)
board.cache_hierarchy.ruby_system.L1Cache_Controller.DataS_fromL1 |          57      2.38%      2.38% |         271     11.32%     13.70% |        1743     72.81%     86.51% |          17      0.71%     87.22% |          18      0.75%     87.97% |          17      0.71%     88.68% |          20      0.84%     89.52% |          31      1.29%     90.81% |          26      1.09%     91.90% |          22      0.92%     92.82% |          25      1.04%     93.86% |          28      1.17%     95.03% |          38      1.59%     96.62% |          25      1.04%     97.66% |          19      0.79%     98.45% |          15      0.63%     99.08% |          22      0.92%    100.00% (Unspecified)
board.cache_hierarchy.ruby_system.L1Cache_Controller.DataS_fromL1::total         2394                       (Unspecified)
board.cache_hierarchy.ruby_system.L1Cache_Controller.Data_all_Acks |         766      2.25%      2.25% |         246      0.72%      2.98% |         453      1.33%      4.31% |        2341      6.88%     11.19% |        2340      6.88%     18.07% |        2343      6.89%     24.96% |        2327      6.84%     31.81% |        2319      6.82%     38.63% |        2323      6.83%     45.46% |        2335      6.87%     52.32% |        2327      6.84%     59.17% |        2326      6.84%     66.01% |        2319      6.82%     72.83% |        2325      6.84%     79.66% |        2328      6.85%     86.51% |        2323      6.83%     93.34% |        2265      6.66%    100.00% (Unspecified)
board.cache_hierarchy.ruby_system.L1Cache_Controller.Data_all_Acks::total        34006                       (Unspecified)
board.cache_hierarchy.ruby_system.L1Cache_Controller.Ack |          37     10.54%     10.54% |           9      2.56%     13.11% |          20      5.70%     18.80% |          16      4.56%     23.36% |          34      9.69%     33.05% |          17      4.84%     37.89% |          31      8.83%     46.72% |          22      6.27%     52.99% |          11      3.13%     56.13% |          14      3.99%     60.11% |          19      5.41%     65.53% |          32      9.12%     74.64% |          30      8.55%     83.19% |          14      3.99%     87.18% |          13      3.70%     90.88% |          16      4.56%     95.44% |          16      4.56%    100.00% (Unspecified)
board.cache_hierarchy.ruby_system.L1Cache_Controller.Ack::total          351                       (Unspecified)
board.cache_hierarchy.ruby_system.L1Cache_Controller.Ack_all |          32     14.16%     14.16% |           9      3.98%     18.14% |          15      6.64%     24.78% |          11      4.87%     29.65% |          15      6.64%     36.28% |          11      4.87%     41.15% |          14      6.19%     47.35% |          12      5.31%     52.65% |           8      3.54%     56.19% |          12      5.31%     61.50% |          12      5.31%     66.81% |          16      7.08%     73.89% |          14      6.19%     80.09% |          10      4.42%     84.51% |          11      4.87%     89.38% |          12      5.31%     94.69% |          12      5.31%    100.00% (Unspecified)
board.cache_hierarchy.ruby_system.L1Cache_Controller.Ack_all::total          226                       (Unspecified)
board.cache_hierarchy.ruby_system.L1Cache_Controller.WB_Ack |         360     54.63%     54.63% |          91     13.81%     68.44% |          14      2.12%     70.56% |          14      2.12%     72.69% |          14      2.12%     74.81% |          14      2.12%     76.93% |          14      2.12%     79.06% |          14      2.12%     81.18% |          13      1.97%     83.16% |          13      1.97%     85.13% |          14      2.12%     87.25% |          14      2.12%     89.38% |          14      2.12%     91.50% |          14      2.12%     93.63% |          14      2.12%     95.75% |          14      2.12%     97.88% |          14      2.12%    100.00% (Unspecified)
board.cache_hierarchy.ruby_system.L1Cache_Controller.WB_Ack::total          659                       (Unspecified)
board.cache_hierarchy.ruby_system.L1Cache_Controller.NP.Load |         126      0.38%      0.38% |        2088      6.22%      6.59% |        2094      6.24%     12.83% |        2090      6.22%     19.05% |        2092      6.23%     25.28% |        2091      6.23%     31.51% |        2088      6.22%     37.72% |        2092      6.23%     43.95% |        2090      6.22%     50.18% |        2090      6.22%     56.40% |        2089      6.22%     62.62% |        2091      6.23%     68.85% |        2093      6.23%     75.08% |        2093      6.23%     81.31% |        2090      6.22%     87.54% |        2091      6.23%     93.76% |        2095      6.24%    100.00% (Unspecified)
board.cache_hierarchy.ruby_system.L1Cache_Controller.NP.Load::total        33583                       (Unspecified)
board.cache_hierarchy.ruby_system.L1Cache_Controller.NP.Ifetch |         337      9.92%      9.92% |         182      5.36%     15.28% |         159      4.68%     19.96% |         198      5.83%     25.80% |         197      5.80%     31.60% |         202      5.95%     37.54% |         192      5.65%     43.20% |         197      5.80%     49.00% |         194      5.71%     54.71% |         202      5.95%     60.66% |         197      5.80%     66.46% |         196      5.77%     72.23% |         202      5.95%     78.18% |         193      5.68%     83.86% |         193      5.68%     89.55% |         190      5.59%     95.14% |         165      4.86%    100.00% (Unspecified)
board.cache_hierarchy.ruby_system.L1Cache_Controller.NP.Ifetch::total         3396                       (Unspecified)
board.cache_hierarchy.ruby_system.L1Cache_Controller.NP.Store |         395     29.83%     29.83% |          62      4.68%     34.52% |          27      2.04%     36.56% |          63      4.76%     41.31% |          62      4.68%     46.00% |          63      4.76%     50.76% |          63      4.76%     55.51% |          62      4.68%     60.20% |          62      4.68%     64.88% |          63      4.76%     69.64% |          64      4.83%     74.47% |          63      4.76%     79.23% |          64      4.83%     84.06% |          61      4.61%     88.67% |          62      4.68%     93.35% |          61      4.61%     97.96% |          27      2.04%    100.00% (Unspecified)
board.cache_hierarchy.ruby_system.L1Cache_Controller.NP.Store::total         1324                       (Unspecified)
board.cache_hierarchy.ruby_system.L1Cache_Controller.NP.Inv |          10    100.00%    100.00% |           0      0.00%    100.00% |           0      0.00%    100.00% |           0      0.00%    100.00% |           0      0.00%    100.00% |           0      0.00%    100.00% |           0      0.00%    100.00% |           0      0.00%    100.00% |           0      0.00%    100.00% |           0      0.00%    100.00% |           0      0.00%    100.00% |           0      0.00%    100.00% |           0      0.00%    100.00% |           0      0.00%    100.00% |           0      0.00%    100.00% |           0      0.00%    100.00% |           0      0.00%    100.00% (Unspecified)
board.cache_hierarchy.ruby_system.L1Cache_Controller.NP.Inv::total           10                       (Unspecified)
board.cache_hierarchy.ruby_system.L1Cache_Controller.I.Load |          19      9.60%      9.60% |           0      0.00%      9.60% |           6      3.03%     12.63% |          13      6.57%     19.19% |          17      8.59%     27.78% |          13      6.57%     34.34% |          13      6.57%     40.91% |          11      5.56%     46.46% |          11      5.56%     52.02% |          11      5.56%     57.58% |          11      5.56%     63.13% |          13      6.57%     69.70% |          11      5.56%     75.25% |          15      7.58%     82.83% |          13      6.57%     89.39% |          10      5.05%     94.44% |          11      5.56%    100.00% (Unspecified)
board.cache_hierarchy.ruby_system.L1Cache_Controller.I.Load::total          198                       (Unspecified)
board.cache_hierarchy.ruby_system.L1Cache_Controller.I.Store |           1      1.09%      1.09% |           0      0.00%      1.09% |           1      1.09%      2.17% |           9      9.78%     11.96% |           7      7.61%     19.57% |           7      7.61%     27.17% |          10     10.87%     38.04% |           5      5.43%     43.48% |           4      4.35%     47.83% |           7      7.61%     55.43% |           8      8.70%     64.13% |          10     10.87%     75.00% |           8      8.70%     83.70% |           3      3.26%     86.96% |           5      5.43%     92.39% |           4      4.35%     96.74% |           3      3.26%    100.00% (Unspecified)
board.cache_hierarchy.ruby_system.L1Cache_Controller.I.Store::total           92                       (Unspecified)
board.cache_hierarchy.ruby_system.L1Cache_Controller.I.L1_Replacement |          58     96.67%     96.67% |           0      0.00%     96.67% |           0      0.00%     96.67% |           0      0.00%     96.67% |           0      0.00%     96.67% |           1      1.67%     98.33% |           0      0.00%     98.33% |           0      0.00%     98.33% |           0      0.00%     98.33% |           1      1.67%    100.00% |           0      0.00%    100.00% |           0      0.00%    100.00% |           0      0.00%    100.00% |           0      0.00%    100.00% |           0      0.00%    100.00% |           0      0.00%    100.00% |           0      0.00%    100.00% (Unspecified)
board.cache_hierarchy.ruby_system.L1Cache_Controller.I.L1_Replacement::total           60                       (Unspecified)
board.cache_hierarchy.ruby_system.L1Cache_Controller.S.Load |         491     31.08%     31.08% |          59      3.73%     34.81% |          75      4.75%     39.56% |          72      4.56%     44.11% |          66      4.18%     48.29% |          71      4.49%     52.78% |          74      4.68%     57.47% |          67      4.24%     61.71% |          69      4.37%     66.08% |          63      3.99%     70.06% |          79      5.00%     75.06% |          74      4.68%     79.75% |          70      4.43%     84.18% |          65      4.11%     88.29% |          65      4.11%     92.41% |          56      3.54%     95.95% |          64      4.05%    100.00% (Unspecified)
board.cache_hierarchy.ruby_system.L1Cache_Controller.S.Load::total         1580                       (Unspecified)
board.cache_hierarchy.ruby_system.L1Cache_Controller.S.Ifetch |       20157      3.62%      3.62% |       33375      5.99%      9.61% |       33405      5.99%     15.60% |       33554      6.02%     21.62% |       33644      6.04%     27.66% |       33621      6.03%     33.69% |       33688      6.05%     39.74% |       33616      6.03%     45.77% |       33524      6.02%     51.79% |       33592      6.03%     57.82% |       33650      6.04%     63.86% |       33637      6.04%     69.89% |       33650      6.04%     75.93% |       33589      6.03%     81.96% |       33530      6.02%     87.98% |       33553      6.02%     94.00% |       33442      6.00%    100.00% (Unspecified)
board.cache_hierarchy.ruby_system.L1Cache_Controller.S.Ifetch::total       557227                       (Unspecified)
board.cache_hierarchy.ruby_system.L1Cache_Controller.S.Store |          32     16.67%     16.67% |           9      4.69%     21.35% |          15      7.81%     29.17% |          10      5.21%     34.37% |          12      6.25%     40.62% |           9      4.69%     45.31% |          10      5.21%     50.52% |          10      5.21%     55.73% |           9      4.69%     60.42% |           9      4.69%     65.10% |           9      4.69%     69.79% |          11      5.73%     75.52% |           9      4.69%     80.21% |           9      4.69%     84.90% |           8      4.17%     89.06% |           9      4.69%     93.75% |          12      6.25%    100.00% (Unspecified)
board.cache_hierarchy.ruby_system.L1Cache_Controller.S.Store::total          192                       (Unspecified)
board.cache_hierarchy.ruby_system.L1Cache_Controller.S.Inv |          63     18.92%     18.92% |          10      3.00%     21.92% |          11      3.30%     25.23% |          21      6.31%     31.53% |          19      5.71%     37.24% |          18      5.41%     42.64% |          16      4.80%     47.45% |          17      5.11%     52.55% |          14      4.20%     56.76% |          18      5.41%     62.16% |          20      6.01%     68.17% |          22      6.61%     74.77% |          21      6.31%     81.08% |          18      5.41%     86.49% |          17      5.11%     91.59% |          15      4.50%     96.10% |          13      3.90%    100.00% (Unspecified)
board.cache_hierarchy.ruby_system.L1Cache_Controller.S.Inv::total          333                       (Unspecified)
board.cache_hierarchy.ruby_system.L1Cache_Controller.S.L1_Replacement |         440      1.67%      1.67% |        1547      5.87%      7.54% |        1595      6.06%     13.60% |        1627      6.18%     19.78% |        1628      6.18%     25.96% |        1628      6.18%     32.14% |        1625      6.17%     38.31% |        1629      6.19%     44.50% |        1627      6.18%     50.67% |        1628      6.18%     56.86% |        1627      6.18%     63.03% |        1628      6.18%     69.21% |        1632      6.20%     75.41% |        1628      6.18%     81.59% |        1626      6.17%     87.77% |        1626      6.17%     93.94% |        1596      6.06%    100.00% (Unspecified)
board.cache_hierarchy.ruby_system.L1Cache_Controller.S.L1_Replacement::total        26337                       (Unspecified)
board.cache_hierarchy.ruby_system.L1Cache_Controller.E.Load |        1365     90.10%     90.10% |           9      0.59%     90.69% |           8      0.53%     91.22% |           9      0.59%     91.82% |          10      0.66%     92.48% |           9      0.59%     93.07% |          13      0.86%     93.93% |           9      0.59%     94.52% |          10      0.66%     95.18% |           5      0.33%     95.51% |          10      0.66%     96.17% |          10      0.66%     96.83% |           9      0.59%     97.43% |          10      0.66%     98.09% |          10      0.66%     98.75% |          10      0.66%     99.41% |           9      0.59%    100.00% (Unspecified)
board.cache_hierarchy.ruby_system.L1Cache_Controller.E.Load::total         1515                       (Unspecified)
board.cache_hierarchy.ruby_system.L1Cache_Controller.E.Store |          18     11.25%     11.25% |           8      5.00%     16.25% |           9      5.62%     21.88% |           8      5.00%     26.88% |           9      5.62%     32.50% |           9      5.62%     38.12% |           9      5.62%     43.75% |           9      5.62%     49.38% |           8      5.00%     54.38% |           8      5.00%     59.38% |           9      5.62%     65.00% |           9      5.62%     70.63% |           9      5.62%     76.25% |           9      5.62%     81.88% |           9      5.62%     87.50% |          10      6.25%     93.75% |          10      6.25%    100.00% (Unspecified)
board.cache_hierarchy.ruby_system.L1Cache_Controller.E.Store::total          160                       (Unspecified)
board.cache_hierarchy.ruby_system.L1Cache_Controller.E.L1_Replacement |          12     11.43%     11.43% |          78     74.29%     85.71% |           1      0.95%     86.67% |           1      0.95%     87.62% |           1      0.95%     88.57% |           1      0.95%     89.52% |           1      0.95%     90.48% |           1      0.95%     91.43% |           1      0.95%     92.38% |           1      0.95%     93.33% |           1      0.95%     94.29% |           1      0.95%     95.24% |           1      0.95%     96.19% |           1      0.95%     97.14% |           1      0.95%     98.10% |           1      0.95%     99.05% |           1      0.95%    100.00% (Unspecified)
board.cache_hierarchy.ruby_system.L1Cache_Controller.E.L1_Replacement::total          105                       (Unspecified)
board.cache_hierarchy.ruby_system.L1Cache_Controller.E.Fwd_GETS |           9      0.49%      0.49% |        1726     94.42%     94.91% |          78      4.27%     99.18% |           2      0.11%     99.29% |           1      0.05%     99.34% |           1      0.05%     99.40% |           2      0.11%     99.51% |           2      0.11%     99.62% |           1      0.05%     99.67% |           1      0.05%     99.73% |           1      0.05%     99.78% |           1      0.05%     99.84% |           1      0.05%     99.89% |           1      0.05%     99.95% |           0      0.00%     99.95% |           1      0.05%    100.00% |           0      0.00%    100.00% (Unspecified)
board.cache_hierarchy.ruby_system.L1Cache_Controller.E.Fwd_GETS::total         1828                       (Unspecified)
board.cache_hierarchy.ruby_system.L1Cache_Controller.M.Load |       11333      4.58%      4.58% |       14770      5.97%     10.55% |       14721      5.95%     16.49% |       14742      5.96%     22.45% |       14763      5.96%     28.42% |       14789      5.98%     34.39% |       14755      5.96%     40.35% |       14776      5.97%     46.32% |       14763      5.96%     52.29% |       14769      5.97%     58.26% |       14754      5.96%     64.22% |       14737      5.95%     70.17% |       14757      5.96%     76.13% |       14794      5.98%     82.11% |       14758      5.96%     88.07% |       14748      5.96%     94.03% |       14768      5.97%    100.00% (Unspecified)
board.cache_hierarchy.ruby_system.L1Cache_Controller.M.Load::total       247497                       (Unspecified)
board.cache_hierarchy.ruby_system.L1Cache_Controller.M.Store |       22294      8.51%      8.51% |       15010      5.73%     14.24% |       14741      5.63%     19.87% |       15015      5.73%     25.60% |       15015      5.73%     31.33% |       15013      5.73%     37.06% |       15018      5.73%     42.80% |       15014      5.73%     48.53% |       15010      5.73%     54.26% |       15013      5.73%     59.99% |       15017      5.73%     65.72% |       15015      5.73%     71.46% |       15015      5.73%     77.19% |       15003      5.73%     82.92% |       15007      5.73%     88.64% |       15005      5.73%     94.37% |       14741      5.63%    100.00% (Unspecified)
board.cache_hierarchy.ruby_system.L1Cache_Controller.M.Store::total       261946                       (Unspecified)
board.cache_hierarchy.ruby_system.L1Cache_Controller.M.L1_Replacement |         348     62.82%     62.82% |          13      2.35%     65.16% |          13      2.35%     67.51% |          13      2.35%     69.86% |          13      2.35%     72.20% |          13      2.35%     74.55% |          13      2.35%     76.90% |          13      2.35%     79.24% |          12      2.17%     81.41% |          12      2.17%     83.57% |          13      2.35%     85.92% |          13      2.35%     88.27% |          13      2.35%     90.61% |          13      2.35%     92.96% |          13      2.35%     95.31% |          13      2.35%     97.65% |          13      2.35%    100.00% (Unspecified)
board.cache_hierarchy.ruby_system.L1Cache_Controller.M.L1_Replacement::total          554                       (Unspecified)
board.cache_hierarchy.ruby_system.L1Cache_Controller.M.Fwd_GETX |          37     25.34%     25.34% |          13      8.90%     34.25% |          15     10.27%     44.52% |           6      4.11%     48.63% |           9      6.16%     54.79% |           7      4.79%     59.59% |           7      4.79%     64.38% |           7      4.79%     69.18% |           4      2.74%     71.92% |           6      4.11%     76.03% |           4      2.74%     78.77% |           9      6.16%     84.93% |           5      3.42%     88.36% |           4      2.74%     91.10% |           5      3.42%     94.52% |           4      2.74%     97.26% |           4      2.74%    100.00% (Unspecified)
board.cache_hierarchy.ruby_system.L1Cache_Controller.M.Fwd_GETX::total          146                       (Unspecified)
board.cache_hierarchy.ruby_system.L1Cache_Controller.M.Fwd_GETS |         392     69.26%     69.26% |          12      2.12%     71.38% |          12      2.12%     73.50% |          13      2.30%     75.80% |          11      1.94%     77.74% |          10      1.77%     79.51% |          12      2.12%     81.63% |           9      1.59%     83.22% |          10      1.77%     84.98% |          11      1.94%     86.93% |          14      2.47%     89.40% |          13      2.30%     91.70% |          13      2.30%     93.99% |           8      1.41%     95.41% |           9      1.59%     97.00% |          10      1.77%     98.76% |           7      1.24%    100.00% (Unspecified)
board.cache_hierarchy.ruby_system.L1Cache_Controller.M.Fwd_GETS::total          566                       (Unspecified)
board.cache_hierarchy.ruby_system.L1Cache_Controller.IS.Inv |           0      0.00%      0.00% |           0      0.00%      0.00% |           3      7.14%      7.14% |           1      2.38%      9.52% |           3      7.14%     16.67% |           4      9.52%     26.19% |           2      4.76%     30.95% |           1      2.38%     33.33% |           5     11.90%     45.24% |           4      9.52%     54.76% |           3      7.14%     61.90% |           1      2.38%     64.29% |           2      4.76%     69.05% |           4      9.52%     78.57% |           3      7.14%     85.71% |           2      4.76%     90.48% |           4      9.52%    100.00% (Unspecified)
board.cache_hierarchy.ruby_system.L1Cache_Controller.IS.Inv::total           42                       (Unspecified)
board.cache_hierarchy.ruby_system.L1Cache_Controller.IS.Data_Exclusive |          56      2.59%      2.59% |        1815     84.03%     86.62% |          91      4.21%     90.83% |          14      0.65%     91.48% |          14      0.65%     92.13% |          14      0.65%     92.78% |          15      0.69%     93.47% |          15      0.69%     94.17% |          13      0.60%     94.77% |          13      0.60%     95.37% |          14      0.65%     96.02% |          14      0.65%     96.67% |          16      0.74%     97.41% |          14      0.65%     98.06% |          13      0.60%     98.66% |          15      0.69%     99.35% |          14      0.65%    100.00% (Unspecified)
board.cache_hierarchy.ruby_system.L1Cache_Controller.IS.Data_Exclusive::total         2160                       (Unspecified)
board.cache_hierarchy.ruby_system.L1Cache_Controller.IS.DataS_fromL1 |          57      2.38%      2.38% |         271     11.32%     13.70% |        1743     72.81%     86.51% |          17      0.71%     87.22% |          18      0.75%     87.97% |          17      0.71%     88.68% |          20      0.84%     89.52% |          31      1.29%     90.81% |          26      1.09%     91.90% |          22      0.92%     92.82% |          25      1.04%     93.86% |          28      1.17%     95.03% |          38      1.59%     96.62% |          25      1.04%     97.66% |          19      0.79%     98.45% |          15      0.63%     99.08% |          22      0.92%    100.00% (Unspecified)
board.cache_hierarchy.ruby_system.L1Cache_Controller.IS.DataS_fromL1::total         2394                       (Unspecified)
board.cache_hierarchy.ruby_system.L1Cache_Controller.IS.Data_all_Acks |         370      1.14%      1.14% |         184      0.56%      1.70% |         422      1.30%      3.00% |        2269      6.96%      9.96% |        2271      6.97%     16.93% |        2271      6.97%     23.90% |        2256      6.92%     30.82% |        2253      6.91%     37.74% |        2251      6.91%     44.65% |        2264      6.95%     51.60% |        2255      6.92%     58.52% |        2257      6.93%     65.44% |        2250      6.91%     72.35% |        2258      6.93%     79.28% |        2261      6.94%     86.22% |        2259      6.93%     93.15% |        2231      6.85%    100.00% (Unspecified)
board.cache_hierarchy.ruby_system.L1Cache_Controller.IS.Data_all_Acks::total        32582                       (Unspecified)
board.cache_hierarchy.ruby_system.L1Cache_Controller.IM.Data |           0      0.00%      0.00% |           0      0.00%      0.00% |           1      1.69%      1.69% |           3      5.08%      6.78% |           7     11.86%     18.64% |           3      5.08%     23.73% |           6     10.17%     33.90% |           3      5.08%     38.98% |           1      1.69%     40.68% |           6     10.17%     50.85% |           5      8.47%     59.32% |           7     11.86%     71.19% |           7     11.86%     83.05% |           1      1.69%     84.75% |           4      6.78%     91.53% |           3      5.08%     96.61% |           2      3.39%    100.00% (Unspecified)
board.cache_hierarchy.ruby_system.L1Cache_Controller.IM.Data::total           59                       (Unspecified)
board.cache_hierarchy.ruby_system.L1Cache_Controller.IM.Data_all_Acks |         396     28.65%     28.65% |          62      4.49%     33.14% |          28      2.03%     35.17% |          71      5.14%     40.30% |          66      4.78%     45.08% |          68      4.92%     50.00% |          69      4.99%     54.99% |          65      4.70%     59.70% |          67      4.85%     64.54% |          67      4.85%     69.39% |          69      4.99%     74.38% |          68      4.92%     79.31% |          67      4.85%     84.15% |          63      4.56%     88.71% |          64      4.63%     93.34% |          62      4.49%     97.83% |          30      2.17%    100.00% (Unspecified)
board.cache_hierarchy.ruby_system.L1Cache_Controller.IM.Data_all_Acks::total         1382                       (Unspecified)
board.cache_hierarchy.ruby_system.L1Cache_Controller.SM.Inv |           0      0.00%      0.00% |           0      0.00%      0.00% |           1      4.00%      4.00% |           2      8.00%     12.00% |           4     16.00%     28.00% |           1      4.00%     32.00% |           2      8.00%     40.00% |           1      4.00%     44.00% |           2      8.00%     52.00% |           3     12.00%     64.00% |           2      8.00%     72.00% |           2      8.00%     80.00% |           2      8.00%     88.00% |           0      0.00%     88.00% |           1      4.00%     92.00% |           0      0.00%     92.00% |           2      8.00%    100.00% (Unspecified)
board.cache_hierarchy.ruby_system.L1Cache_Controller.SM.Inv::total           25                       (Unspecified)
board.cache_hierarchy.ruby_system.L1Cache_Controller.SM.Ack |          37     10.54%     10.54% |           9      2.56%     13.11% |          20      5.70%     18.80% |          16      4.56%     23.36% |          34      9.69%     33.05% |          17      4.84%     37.89% |          31      8.83%     46.72% |          22      6.27%     52.99% |          11      3.13%     56.13% |          14      3.99%     60.11% |          19      5.41%     65.53% |          32      9.12%     74.64% |          30      8.55%     83.19% |          14      3.99%     87.18% |          13      3.70%     90.88% |          16      4.56%     95.44% |          16      4.56%    100.00% (Unspecified)
board.cache_hierarchy.ruby_system.L1Cache_Controller.SM.Ack::total          351                       (Unspecified)
board.cache_hierarchy.ruby_system.L1Cache_Controller.SM.Ack_all |          32     14.16%     14.16% |           9      3.98%     18.14% |          15      6.64%     24.78% |          11      4.87%     29.65% |          15      6.64%     36.28% |          11      4.87%     41.15% |          14      6.19%     47.35% |          12      5.31%     52.65% |           8      3.54%     56.19% |          12      5.31%     61.50% |          12      5.31%     66.81% |          16      7.08%     73.89% |          14      6.19%     80.09% |          10      4.42%     84.51% |          11      4.87%     89.38% |          12      5.31%     94.69% |          12      5.31%    100.00% (Unspecified)
board.cache_hierarchy.ruby_system.L1Cache_Controller.SM.Ack_all::total          226                       (Unspecified)
board.cache_hierarchy.ruby_system.L1Cache_Controller.IS_I.Data_all_Acks |           0      0.00%      0.00% |           0      0.00%      0.00% |           3      7.14%      7.14% |           1      2.38%      9.52% |           3      7.14%     16.67% |           4      9.52%     26.19% |           2      4.76%     30.95% |           1      2.38%     33.33% |           5     11.90%     45.24% |           4      9.52%     54.76% |           3      7.14%     61.90% |           1      2.38%     64.29% |           2      4.76%     69.05% |           4      9.52%     78.57% |           3      7.14%     85.71% |           2      4.76%     90.48% |           4      9.52%    100.00% (Unspecified)
board.cache_hierarchy.ruby_system.L1Cache_Controller.IS_I.Data_all_Acks::total           42                       (Unspecified)
board.cache_hierarchy.ruby_system.L1Cache_Controller.M_I.WB_Ack |         360     54.63%     54.63% |          91     13.81%     68.44% |          14      2.12%     70.56% |          14      2.12%     72.69% |          14      2.12%     74.81% |          14      2.12%     76.93% |          14      2.12%     79.06% |          14      2.12%     81.18% |          13      1.97%     83.16% |          13      1.97%     85.13% |          14      2.12%     87.25% |          14      2.12%     89.38% |          14      2.12%     91.50% |          14      2.12%     93.63% |          14      2.12%     95.75% |          14      2.12%     97.88% |          14      2.12%    100.00% (Unspecified)
board.cache_hierarchy.ruby_system.L1Cache_Controller.M_I.WB_Ack::total          659                       (Unspecified)
board.cache_hierarchy.ruby_system.L2Cache_Controller.L1_GET_INSTR |         184      5.42%      5.42% |         214      6.30%     11.72% |         250      7.36%     19.08% |         286      8.42%     27.49% |         234      6.89%     34.38% |         190      5.59%     39.98% |         228      6.71%     46.69% |         185      5.45%     52.13% |         231      6.80%     58.93% |         213      6.27%     65.20% |         229      6.74%     71.95% |         211      6.21%     78.16% |         224      6.59%     84.75% |         200      5.89%     90.64% |         173      5.09%     95.73% |         145      4.27%    100.00% (Unspecified)
board.cache_hierarchy.ruby_system.L2Cache_Controller.L1_GET_INSTR::total         3397                       (Unspecified)
board.cache_hierarchy.ruby_system.L2Cache_Controller.L1_GETS |        2299      5.54%      5.54% |        2212      5.33%     10.88% |        2458      5.93%     16.81% |        2496      6.02%     22.83% |        2559      6.17%     29.00% |        2665      6.43%     35.43% |        2678      6.46%     41.88% |        2614      6.30%     48.19% |        2627      6.34%     54.52% |        2671      6.44%     60.96% |        3148      7.59%     68.56% |        2555      6.16%     74.72% |        2639      6.36%     81.08% |        2655      6.40%     87.49% |        2633      6.35%     93.84% |        2556      6.16%    100.00% (Unspecified)
board.cache_hierarchy.ruby_system.L2Cache_Controller.L1_GETS::total        41465                       (Unspecified)
board.cache_hierarchy.ruby_system.L2Cache_Controller.L1_GETX |          68      3.93%      3.93% |         137      7.92%     11.86% |          85      4.92%     16.77% |          91      5.26%     22.04% |         119      6.88%     28.92% |         134      7.75%     36.67% |          87      5.03%     41.70% |         101      5.84%     47.54% |         101      5.84%     53.38% |          68      3.93%     57.32% |         401     23.19%     80.51% |          53      3.07%     83.57% |          85      4.92%     88.49% |          84      4.86%     93.35% |          64      3.70%     97.05% |          51      2.95%    100.00% (Unspecified)
board.cache_hierarchy.ruby_system.L2Cache_Controller.L1_GETX::total         1729                       (Unspecified)
board.cache_hierarchy.ruby_system.L2Cache_Controller.L1_UPGRADE |           1      0.51%      0.51% |          63     31.98%     32.49% |           9      4.57%     37.06% |           4      2.03%     39.09% |           4      2.03%     41.12% |          33     16.75%     57.87% |          14      7.11%     64.97% |           5      2.54%     67.51% |           2      1.02%     68.53% |           2      1.02%     69.54% |          35     17.77%     87.31% |           0      0.00%     87.31% |           4      2.03%     89.34% |           3      1.52%     90.86% |          17      8.63%     99.49% |           1      0.51%    100.00% (Unspecified)
board.cache_hierarchy.ruby_system.L2Cache_Controller.L1_UPGRADE::total          197                       (Unspecified)
board.cache_hierarchy.ruby_system.L2Cache_Controller.L1_PUTX |          44      6.68%      6.68% |          60      9.10%     15.78% |          33      5.01%     20.79% |          47      7.13%     27.92% |          64      9.71%     37.63% |          65      9.86%     47.50% |          49      7.44%     54.93% |          48      7.28%     62.22% |          48      7.28%     69.50% |          33      5.01%     74.51% |          34      5.16%     79.67% |          12      1.82%     81.49% |          27      4.10%     85.58% |          39      5.92%     91.50% |          33      5.01%     96.51% |          23      3.49%    100.00% (Unspecified)
board.cache_hierarchy.ruby_system.L2Cache_Controller.L1_PUTX::total          659                       (Unspecified)
board.cache_hierarchy.ruby_system.L2Cache_Controller.Mem_Data |          89      5.51%      5.51% |          95      5.89%     11.40% |         110      6.82%     18.22% |         116      7.19%     25.40% |         123      7.62%     33.02% |         125      7.74%     40.77% |         103      6.38%     47.15% |         100      6.20%     53.35% |         104      6.44%     59.79% |         107      6.63%     66.42% |          89      5.51%     71.93% |          76      4.71%     76.64% |          94      5.82%     82.47% |         107      6.63%     89.10% |          88      5.45%     94.55% |          88      5.45%    100.00% (Unspecified)
board.cache_hierarchy.ruby_system.L2Cache_Controller.Mem_Data::total         1614                       (Unspecified)
board.cache_hierarchy.ruby_system.L2Cache_Controller.WB_Data |          22      3.89%      3.89% |          86     15.19%     19.08% |          43      7.60%     26.68% |          24      4.24%     30.92% |          21      3.71%     34.63% |          59     10.42%     45.05% |          30      5.30%     50.35% |          22      3.89%     54.24% |          21      3.71%     57.95% |          40      7.07%     65.02% |          81     14.31%     79.33% |          19      3.36%     82.69% |          18      3.18%     85.87% |          19      3.36%     89.22% |          35      6.18%     95.41% |          26      4.59%    100.00% (Unspecified)
board.cache_hierarchy.ruby_system.L2Cache_Controller.WB_Data::total          566                       (Unspecified)
board.cache_hierarchy.ruby_system.L2Cache_Controller.WB_Data_clean |         109      5.96%      5.96% |         112      6.13%     12.09% |         115      6.29%     18.38% |         128      7.00%     25.38% |         114      6.24%     31.62% |         118      6.46%     38.07% |         116      6.35%     44.42% |         113      6.18%     50.60% |         112      6.13%     56.73% |         112      6.13%     62.86% |         115      6.29%     69.15% |         110      6.02%     75.16% |         116      6.35%     81.51% |         116      6.35%     87.86% |         115      6.29%     94.15% |         107      5.85%    100.00% (Unspecified)
board.cache_hierarchy.ruby_system.L2Cache_Controller.WB_Data_clean::total         1828                       (Unspecified)
board.cache_hierarchy.ruby_system.L2Cache_Controller.Unblock |         131      5.47%      5.47% |         198      8.27%     13.74% |         158      6.60%     20.34% |         152      6.35%     26.69% |         135      5.64%     32.33% |         177      7.39%     39.72% |         146      6.10%     45.82% |         135      5.64%     51.46% |         133      5.56%     57.02% |         152      6.35%     63.37% |         196      8.19%     71.55% |         129      5.39%     76.94% |         134      5.60%     82.54% |         135      5.64%     88.18% |         150      6.27%     94.44% |         133      5.56%    100.00% (Unspecified)
board.cache_hierarchy.ruby_system.L2Cache_Controller.Unblock::total         2394                       (Unspecified)
board.cache_hierarchy.ruby_system.L2Cache_Controller.Exclusive_Unblock |         214      5.68%      5.68% |         298      7.91%     13.59% |         227      6.02%     19.61% |         240      6.37%     25.98% |         275      7.30%     33.28% |         307      8.15%     41.43% |         242      6.42%     47.85% |         239      6.34%     54.19% |         237      6.29%     60.48% |         203      5.39%     65.87% |         295      7.83%     73.70% |         167      4.43%     78.13% |         209      5.55%     83.68% |         205      5.44%     89.12% |         218      5.79%     94.90% |         192      5.10%    100.00% (Unspecified)
board.cache_hierarchy.ruby_system.L2Cache_Controller.Exclusive_Unblock::total         3768                       (Unspecified)
board.cache_hierarchy.ruby_system.L2Cache_Controller.NP.L1_GET_INSTR |          25      6.41%      6.41% |          26      6.67%     13.08% |          27      6.92%     20.00% |          28      7.18%     27.18% |          26      6.67%     33.85% |          27      6.92%     40.77% |          20      5.13%     45.90% |          19      4.87%     50.77% |          22      5.64%     56.41% |          25      6.41%     62.82% |          24      6.15%     68.97% |          24      6.15%     75.13% |          27      6.92%     82.05% |          26      6.67%     88.72% |          22      5.64%     94.36% |          22      5.64%    100.00% (Unspecified)
board.cache_hierarchy.ruby_system.L2Cache_Controller.NP.L1_GET_INSTR::total          390                       (Unspecified)
board.cache_hierarchy.ruby_system.L2Cache_Controller.NP.L1_GETS |           0      0.00%      0.00% |           2      3.12%      3.12% |           0      0.00%      3.12% |           0      0.00%      3.12% |          16     25.00%     28.12% |           1      1.56%     29.69% |           2      3.12%     32.81% |           0      0.00%     32.81% |           1      1.56%     34.38% |          18     28.12%     62.50% |           1      1.56%     64.06% |           2      3.12%     67.19% |           1      1.56%     68.75% |           0      0.00%     68.75% |           3      4.69%     73.44% |          17     26.56%    100.00% (Unspecified)
board.cache_hierarchy.ruby_system.L2Cache_Controller.NP.L1_GETS::total           64                       (Unspecified)
board.cache_hierarchy.ruby_system.L2Cache_Controller.NP.L1_GETX |          64      5.52%      5.52% |          67      5.78%     11.29% |          83      7.16%     18.45% |          88      7.59%     26.03% |          81      6.98%     33.02% |          97      8.36%     41.38% |          81      6.98%     48.36% |          81      6.98%     55.34% |          81      6.98%     62.33% |          64      5.52%     67.84% |          64      5.52%     73.36% |          50      4.31%     77.67% |          66      5.69%     83.36% |          81      6.98%     90.34% |          63      5.43%     95.78% |          49      4.22%    100.00% (Unspecified)
board.cache_hierarchy.ruby_system.L2Cache_Controller.NP.L1_GETX::total         1160                       (Unspecified)
board.cache_hierarchy.ruby_system.L2Cache_Controller.SS.L1_GET_INSTR |         159      5.30%      5.30% |         188      6.26%     11.56% |         222      7.40%     18.95% |         258      8.59%     27.55% |         208      6.93%     34.48% |         160      5.33%     39.81% |         208      6.93%     46.74% |         166      5.53%     52.27% |         209      6.96%     59.23% |         187      6.23%     65.46% |         205      6.83%     72.29% |         187      6.23%     78.51% |         197      6.56%     85.08% |         174      5.80%     90.87% |         151      5.03%     95.90% |         123      4.10%    100.00% (Unspecified)
board.cache_hierarchy.ruby_system.L2Cache_Controller.SS.L1_GET_INSTR::total         3002                       (Unspecified)
board.cache_hierarchy.ruby_system.L2Cache_Controller.SS.L1_GETS |        1792      6.13%      6.13% |        1812      6.20%     12.33% |        1836      6.28%     18.61% |        1836      6.28%     24.89% |        1822      6.23%     31.13% |        1803      6.17%     37.30% |        1837      6.29%     43.58% |        1810      6.19%     49.78% |        1808      6.19%     55.96% |        1848      6.32%     62.28% |        1922      6.58%     68.86% |        1811      6.20%     75.06% |        1821      6.23%     81.29% |        1822      6.23%     87.52% |        1819      6.22%     93.75% |        1828      6.25%    100.00% (Unspecified)
board.cache_hierarchy.ruby_system.L2Cache_Controller.SS.L1_GETS::total        29227                       (Unspecified)
board.cache_hierarchy.ruby_system.L2Cache_Controller.SS.L1_GETX |           0      0.00%      0.00% |           9     15.25%     15.25% |           0      0.00%     15.25% |           0      0.00%     15.25% |           0      0.00%     15.25% |           0      0.00%     15.25% |           0      0.00%     15.25% |           0      0.00%     15.25% |           0      0.00%     15.25% |           0      0.00%     15.25% |          50     84.75%    100.00% |           0      0.00%    100.00% |           0      0.00%    100.00% |           0      0.00%    100.00% |           0      0.00%    100.00% |           0      0.00%    100.00% (Unspecified)
board.cache_hierarchy.ruby_system.L2Cache_Controller.SS.L1_GETX::total           59                       (Unspecified)
board.cache_hierarchy.ruby_system.L2Cache_Controller.SS.L1_UPGRADE |           1      0.60%      0.60% |          55     32.93%     33.53% |           9      5.39%     38.92% |           4      2.40%     41.32% |           4      2.40%     43.71% |          32     19.16%     62.87% |          14      8.38%     71.26% |           5      2.99%     74.25% |           2      1.20%     75.45% |           2      1.20%     76.65% |          14      8.38%     85.03% |           0      0.00%     85.03% |           4      2.40%     87.43% |           3      1.80%     89.22% |          17     10.18%     99.40% |           1      0.60%    100.00% (Unspecified)
board.cache_hierarchy.ruby_system.L2Cache_Controller.SS.L1_UPGRADE::total          167                       (Unspecified)
board.cache_hierarchy.ruby_system.L2Cache_Controller.M.L1_GETS |         145      6.92%      6.92% |         149      7.11%     14.03% |         133      6.35%     20.37% |         145      6.92%     27.29% |         137      6.54%     33.83% |         140      6.68%     40.51% |         139      6.63%     47.14% |         133      6.35%     53.48% |         133      6.35%     59.83% |         115      5.49%     65.31% |         121      5.77%     71.09% |         112      5.34%     76.43% |         119      5.68%     82.11% |         118      5.63%     87.74% |         134      6.39%     94.13% |         123      5.87%    100.00% (Unspecified)
board.cache_hierarchy.ruby_system.L2Cache_Controller.M.L1_GETS::total         2096                       (Unspecified)
board.cache_hierarchy.ruby_system.L2Cache_Controller.M.L1_GETX |           2      2.63%      2.63% |           2      2.63%      5.26% |           2      2.63%      7.89% |           3      3.95%     11.84% |          21     27.63%     39.47% |          18     23.68%     63.16% |           2      2.63%     65.79% |           2      2.63%     68.42% |           2      2.63%     71.05% |           2      2.63%     73.68% |           2      2.63%     76.32% |           1      1.32%     77.63% |          13     17.11%     94.74% |           1      1.32%     96.05% |           1      1.32%     97.37% |           2      2.63%    100.00% (Unspecified)
board.cache_hierarchy.ruby_system.L2Cache_Controller.M.L1_GETX::total           76                       (Unspecified)
board.cache_hierarchy.ruby_system.L2Cache_Controller.MT.L1_GETS |         131      5.47%      5.47% |         198      8.27%     13.74% |         158      6.60%     20.34% |         152      6.35%     26.69% |         135      5.64%     32.33% |         177      7.39%     39.72% |         146      6.10%     45.82% |         135      5.64%     51.46% |         133      5.56%     57.02% |         152      6.35%     63.37% |         196      8.19%     71.55% |         129      5.39%     76.94% |         134      5.60%     82.54% |         135      5.64%     88.18% |         150      6.27%     94.44% |         133      5.56%    100.00% (Unspecified)
board.cache_hierarchy.ruby_system.L2Cache_Controller.MT.L1_GETS::total         2394                       (Unspecified)
board.cache_hierarchy.ruby_system.L2Cache_Controller.MT.L1_GETX |           2      1.37%      1.37% |          14      9.59%     10.96% |           0      0.00%     10.96% |           0      0.00%     10.96% |          16     10.96%     21.92% |          19     13.01%     34.93% |           4      2.74%     37.67% |          18     12.33%     50.00% |          18     12.33%     62.33% |           2      1.37%     63.70% |          43     29.45%     93.15% |           2      1.37%     94.52% |           6      4.11%     98.63% |           2      1.37%    100.00% |           0      0.00%    100.00% |           0      0.00%    100.00% (Unspecified)
board.cache_hierarchy.ruby_system.L2Cache_Controller.MT.L1_GETX::total          146                       (Unspecified)
board.cache_hierarchy.ruby_system.L2Cache_Controller.MT.L1_PUTX |          44      6.68%      6.68% |          60      9.10%     15.78% |          33      5.01%     20.79% |          47      7.13%     27.92% |          64      9.71%     37.63% |          65      9.86%     47.50% |          49      7.44%     54.93% |          48      7.28%     62.22% |          48      7.28%     69.50% |          33      5.01%     74.51% |          34      5.16%     79.67% |          12      1.82%     81.49% |          27      4.10%     85.58% |          39      5.92%     91.50% |          33      5.01%     96.51% |          23      3.49%    100.00% (Unspecified)
board.cache_hierarchy.ruby_system.L2Cache_Controller.MT.L1_PUTX::total          659                       (Unspecified)
board.cache_hierarchy.ruby_system.L2Cache_Controller.ISS.Mem_Data |           0      0.00%      0.00% |           2      3.12%      3.12% |           0      0.00%      3.12% |           0      0.00%      3.12% |          16     25.00%     28.12% |           1      1.56%     29.69% |           2      3.12%     32.81% |           0      0.00%     32.81% |           1      1.56%     34.38% |          18     28.12%     62.50% |           1      1.56%     64.06% |           2      3.12%     67.19% |           1      1.56%     68.75% |           0      0.00%     68.75% |           3      4.69%     73.44% |          17     26.56%    100.00% (Unspecified)
board.cache_hierarchy.ruby_system.L2Cache_Controller.ISS.Mem_Data::total           64                       (Unspecified)
board.cache_hierarchy.ruby_system.L2Cache_Controller.IS.L1_GET_INSTR |           0      0.00%      0.00% |           0      0.00%      0.00% |           1     20.00%     20.00% |           0      0.00%     20.00% |           0      0.00%     20.00% |           3     60.00%     80.00% |           0      0.00%     80.00% |           0      0.00%     80.00% |           0      0.00%     80.00% |           1     20.00%    100.00% |           0      0.00%    100.00% |           0      0.00%    100.00% |           0      0.00%    100.00% |           0      0.00%    100.00% |           0      0.00%    100.00% |           0      0.00%    100.00% (Unspecified)
board.cache_hierarchy.ruby_system.L2Cache_Controller.IS.L1_GET_INSTR::total            5                       (Unspecified)
board.cache_hierarchy.ruby_system.L2Cache_Controller.IS.Mem_Data |          25      6.41%      6.41% |          26      6.67%     13.08% |          27      6.92%     20.00% |          28      7.18%     27.18% |          26      6.67%     33.85% |          27      6.92%     40.77% |          20      5.13%     45.90% |          19      4.87%     50.77% |          22      5.64%     56.41% |          25      6.41%     62.82% |          24      6.15%     68.97% |          24      6.15%     75.13% |          27      6.92%     82.05% |          26      6.67%     88.72% |          22      5.64%     94.36% |          22      5.64%    100.00% (Unspecified)
board.cache_hierarchy.ruby_system.L2Cache_Controller.IS.Mem_Data::total          390                       (Unspecified)
board.cache_hierarchy.ruby_system.L2Cache_Controller.IM.Mem_Data |          64      5.52%      5.52% |          67      5.78%     11.29% |          83      7.16%     18.45% |          88      7.59%     26.03% |          81      6.98%     33.02% |          97      8.36%     41.38% |          81      6.98%     48.36% |          81      6.98%     55.34% |          81      6.98%     62.33% |          64      5.52%     67.84% |          64      5.52%     73.36% |          50      4.31%     77.67% |          66      5.69%     83.36% |          81      6.98%     90.34% |          63      5.43%     95.78% |          49      4.22%    100.00% (Unspecified)
board.cache_hierarchy.ruby_system.L2Cache_Controller.IM.Mem_Data::total         1160                       (Unspecified)
board.cache_hierarchy.ruby_system.L2Cache_Controller.SS_MB.L1_GETS |           0      0.00%      0.00% |          11      9.91%      9.91% |           0      0.00%      9.91% |           0      0.00%      9.91% |           0      0.00%      9.91% |           1      0.90%     10.81% |           2      1.80%     12.61% |           0      0.00%     12.61% |           0      0.00%     12.61% |           0      0.00%     12.61% |          97     87.39%    100.00% |           0      0.00%    100.00% |           0      0.00%    100.00% |           0      0.00%    100.00% |           0      0.00%    100.00% |           0      0.00%    100.00% (Unspecified)
board.cache_hierarchy.ruby_system.L2Cache_Controller.SS_MB.L1_GETS::total          111                       (Unspecified)
board.cache_hierarchy.ruby_system.L2Cache_Controller.SS_MB.L1_GETX |           0      0.00%      0.00% |          14     17.72%     17.72% |           0      0.00%     17.72% |           0      0.00%     17.72% |           1      1.27%     18.99% |           0      0.00%     18.99% |           0      0.00%     18.99% |           0      0.00%     18.99% |           0      0.00%     18.99% |           0      0.00%     18.99% |          64     81.01%    100.00% |           0      0.00%    100.00% |           0      0.00%    100.00% |           0      0.00%    100.00% |           0      0.00%    100.00% |           0      0.00%    100.00% (Unspecified)
board.cache_hierarchy.ruby_system.L2Cache_Controller.SS_MB.L1_GETX::total           79                       (Unspecified)
board.cache_hierarchy.ruby_system.L2Cache_Controller.SS_MB.L1_UPGRADE |           0      0.00%      0.00% |           7     28.00%     28.00% |           0      0.00%     28.00% |           0      0.00%     28.00% |           0      0.00%     28.00% |           1      4.00%     32.00% |           0      0.00%     32.00% |           0      0.00%     32.00% |           0      0.00%     32.00% |           0      0.00%     32.00% |          17     68.00%    100.00% |           0      0.00%    100.00% |           0      0.00%    100.00% |           0      0.00%    100.00% |           0      0.00%    100.00% |           0      0.00%    100.00% (Unspecified)
board.cache_hierarchy.ruby_system.L2Cache_Controller.SS_MB.L1_UPGRADE::total           25                       (Unspecified)
board.cache_hierarchy.ruby_system.L2Cache_Controller.SS_MB.Exclusive_Unblock |           1      0.44%      0.44% |          64     28.32%     28.76% |           9      3.98%     32.74% |           4      1.77%     34.51% |           4      1.77%     36.28% |          32     14.16%     50.44% |          14      6.19%     56.64% |           5      2.21%     58.85% |           2      0.88%     59.73% |           2      0.88%     60.62% |          64     28.32%     88.94% |           0      0.00%     88.94% |           4      1.77%     90.71% |           3      1.33%     92.04% |          17      7.52%     99.56% |           1      0.44%    100.00% (Unspecified)
board.cache_hierarchy.ruby_system.L2Cache_Controller.SS_MB.Exclusive_Unblock::total          226                       (Unspecified)
board.cache_hierarchy.ruby_system.L2Cache_Controller.MT_MB.L1_GETS |           2      1.32%      1.32% |          11      7.24%      8.55% |           0      0.00%      8.55% |           0      0.00%      8.55% |           0      0.00%      8.55% |           0      0.00%      8.55% |           0      0.00%      8.55% |           2      1.32%      9.87% |           0      0.00%      9.87% |           2      1.32%     11.18% |         135     88.82%    100.00% |           0      0.00%    100.00% |           0      0.00%    100.00% |           0      0.00%    100.00% |           0      0.00%    100.00% |           0      0.00%    100.00% (Unspecified)
board.cache_hierarchy.ruby_system.L2Cache_Controller.MT_MB.L1_GETS::total          152                       (Unspecified)
board.cache_hierarchy.ruby_system.L2Cache_Controller.MT_MB.L1_GETX |           0      0.00%      0.00% |          14     11.97%     11.97% |           0      0.00%     11.97% |           0      0.00%     11.97% |           0      0.00%     11.97% |           0      0.00%     11.97% |           0      0.00%     11.97% |           0      0.00%     11.97% |           0      0.00%     11.97% |           0      0.00%     11.97% |         103     88.03%    100.00% |           0      0.00%    100.00% |           0      0.00%    100.00% |           0      0.00%    100.00% |           0      0.00%    100.00% |           0      0.00%    100.00% (Unspecified)
board.cache_hierarchy.ruby_system.L2Cache_Controller.MT_MB.L1_GETX::total          117                       (Unspecified)
board.cache_hierarchy.ruby_system.L2Cache_Controller.MT_MB.Exclusive_Unblock |         213      6.01%      6.01% |         234      6.61%     12.62% |         218      6.15%     18.77% |         236      6.66%     25.44% |         271      7.65%     33.09% |         275      7.76%     40.85% |         228      6.44%     47.29% |         234      6.61%     53.90% |         235      6.63%     60.53% |         201      5.67%     66.21% |         231      6.52%     72.73% |         167      4.71%     77.44% |         205      5.79%     83.23% |         202      5.70%     88.93% |         201      5.67%     94.61% |         191      5.39%    100.00% (Unspecified)
board.cache_hierarchy.ruby_system.L2Cache_Controller.MT_MB.Exclusive_Unblock::total         3542                       (Unspecified)
board.cache_hierarchy.ruby_system.L2Cache_Controller.MT_IIB.L1_GETS |         101      3.63%      3.63% |          10      0.36%      3.99% |         233      8.38%     12.37% |         179      6.44%     18.81% |         215      7.73%     26.54% |         245      8.81%     35.35% |         241      8.67%     44.01% |         213      7.66%     51.67% |         198      7.12%     58.79% |         178      6.40%     65.19% |         268      9.64%     74.83% |         138      4.96%     79.79% |         145      5.21%     85.01% |         114      4.10%     89.10% |         204      7.34%     96.44% |          99      3.56%    100.00% (Unspecified)
board.cache_hierarchy.ruby_system.L2Cache_Controller.MT_IIB.L1_GETS::total         2781                       (Unspecified)
board.cache_hierarchy.ruby_system.L2Cache_Controller.MT_IIB.L1_GETX |           0      0.00%      0.00% |          17     20.24%     20.24% |           0      0.00%     20.24% |           0      0.00%     20.24% |           0      0.00%     20.24% |           0      0.00%     20.24% |           0      0.00%     20.24% |           0      0.00%     20.24% |           0      0.00%     20.24% |           0      0.00%     20.24% |          67     79.76%    100.00% |           0      0.00%    100.00% |           0      0.00%    100.00% |           0      0.00%    100.00% |           0      0.00%    100.00% |           0      0.00%    100.00% (Unspecified)
board.cache_hierarchy.ruby_system.L2Cache_Controller.MT_IIB.L1_GETX::total           84                       (Unspecified)
board.cache_hierarchy.ruby_system.L2Cache_Controller.MT_IIB.WB_Data |          22      4.06%      4.06% |          69     12.73%     16.79% |          43      7.93%     24.72% |          24      4.43%     29.15% |          20      3.69%     32.84% |          59     10.89%     43.73% |          30      5.54%     49.26% |          21      3.87%     53.14% |          21      3.87%     57.01% |          40      7.38%     64.39% |          77     14.21%     78.60% |          19      3.51%     82.10% |          18      3.32%     85.42% |          19      3.51%     88.93% |          35      6.46%     95.39% |          25      4.61%    100.00% (Unspecified)
board.cache_hierarchy.ruby_system.L2Cache_Controller.MT_IIB.WB_Data::total          542                       (Unspecified)
board.cache_hierarchy.ruby_system.L2Cache_Controller.MT_IIB.WB_Data_clean |         109      6.03%      6.03% |         106      5.87%     11.90% |         115      6.36%     18.26% |         115      6.36%     24.63% |         114      6.31%     30.94% |         118      6.53%     37.47% |         116      6.42%     43.88% |         113      6.25%     50.14% |         112      6.20%     56.34% |         112      6.20%     62.53% |         115      6.36%     68.90% |         110      6.09%     74.99% |         116      6.42%     81.41% |         116      6.42%     87.83% |         113      6.25%     94.08% |         107      5.92%    100.00% (Unspecified)
board.cache_hierarchy.ruby_system.L2Cache_Controller.MT_IIB.WB_Data_clean::total         1807                       (Unspecified)
board.cache_hierarchy.ruby_system.L2Cache_Controller.MT_IIB.Unblock |           0      0.00%      0.00% |          23     51.11%     51.11% |           0      0.00%     51.11% |          13     28.89%     80.00% |           1      2.22%     82.22% |           0      0.00%     82.22% |           0      0.00%     82.22% |           1      2.22%     84.44% |           0      0.00%     84.44% |           0      0.00%     84.44% |           4      8.89%     93.33% |           0      0.00%     93.33% |           0      0.00%     93.33% |           0      0.00%     93.33% |           2      4.44%     97.78% |           1      2.22%    100.00% (Unspecified)
board.cache_hierarchy.ruby_system.L2Cache_Controller.MT_IIB.Unblock::total           45                       (Unspecified)
board.cache_hierarchy.ruby_system.L2Cache_Controller.MT_IB.WB_Data |           0      0.00%      0.00% |          17     70.83%     70.83% |           0      0.00%     70.83% |           0      0.00%     70.83% |           1      4.17%     75.00% |           0      0.00%     75.00% |           0      0.00%     75.00% |           1      4.17%     79.17% |           0      0.00%     79.17% |           0      0.00%     79.17% |           4     16.67%     95.83% |           0      0.00%     95.83% |           0      0.00%     95.83% |           0      0.00%     95.83% |           0      0.00%     95.83% |           1      4.17%    100.00% (Unspecified)
board.cache_hierarchy.ruby_system.L2Cache_Controller.MT_IB.WB_Data::total           24                       (Unspecified)
[...]
board.processor.cores9.core.fetch.nisnDist::mean     0.866435                       # Number of instructions fetched each cycle (Total) (Count)
board.processor.cores9.core.fetch.nisnDist::stdev     2.251635                       # Number of instructions fetched each cycle (Total) (Count)
board.processor.cores9.core.fetch.nisnDist::underflows            0      0.00%      0.00% # Number of instructions fetched each cycle (Total) (Count)
board.processor.cores9.core.fetch.nisnDist::0       380445     85.66%     85.66% # Number of instructions fetched each cycle (Total) (Count)
board.processor.cores9.core.fetch.nisnDist::1          148      0.03%     85.70% # Number of instructions fetched each cycle (Total) (Count)
board.processor.cores9.core.fetch.nisnDist::2         4162      0.94%     86.63% # Number of instructions fetched each cycle (Total) (Count)
board.processor.cores9.core.fetch.nisnDist::3          169      0.04%     86.67% # Number of instructions fetched each cycle (Total) (Count)
board.processor.cores9.core.fetch.nisnDist::4        18549      4.18%     90.85% # Number of instructions fetched each cycle (Total) (Count)
board.processor.cores9.core.fetch.nisnDist::5          172      0.04%     90.89% # Number of instructions fetched each cycle (Total) (Count)
board.processor.cores9.core.fetch.nisnDist::6        10415      2.35%     93.23% # Number of instructions fetched each cycle (Total) (Count)
board.processor.cores9.core.fetch.nisnDist::7         2218      0.50%     93.73% # Number of instructions fetched each cycle (Total) (Count)
board.processor.cores9.core.fetch.nisnDist::8        27844      6.27%    100.00% # Number of instructions fetched each cycle (Total) (Count)
board.processor.cores9.core.fetch.nisnDist::overflows            0      0.00%    100.00% # Number of instructions fetched each cycle (Total) (Count)
board.processor.cores9.core.fetch.nisnDist::min_value            0                       # Number of instructions fetched each cycle (Total) (Count)
board.processor.cores9.core.fetch.nisnDist::max_value            8                       # Number of instructions fetched each cycle (Total) (Count)
board.processor.cores9.core.fetch.nisnDist::total       444122                       # Number of instructions fetched each cycle (Total) (Count)
board.processor.cores9.core.fetchStats0.numInsts       258936                       # Number of instructions fetched (thread level) (Count)
board.processor.cores9.core.fetchStats0.numOps            0                       # Number of ops (including micro ops) fetched (thread level) (Count)
board.processor.cores9.core.fetchStats0.fetchRate     0.570450                       # Number of inst fetches per cycle ((Count/Cycle))
board.processor.cores9.core.fetchStats0.numBranches        24112                       # Number of branches fetched (Count)
board.processor.cores9.core.fetchStats0.branchRate     0.053120                       # Number of branch fetches per cycle (Ratio)
board.processor.cores9.core.fetchStats0.icacheStallCycles        40417                       # ICache total stall cycles (Cycle)
board.processor.cores9.core.fetchStats0.numFetchSuspends            0                       # Number of times Execute suspended instruction fetching (Count)
board.processor.cores9.core.iew.idleCycles            0                       # Number of cycles IEW is idle (Cycle)
board.processor.cores9.core.iew.squashCycles         2276                       # Number of cycles IEW is squashing (Cycle)
board.processor.cores9.core.iew.blockCycles       301312                       # Number of cycles IEW is blocking (Cycle)
board.processor.cores9.core.iew.unblockCycles         6437                       # Number of cycles IEW is unblocking (Cycle)
board.processor.cores9.core.iew.dispatchedInsts       283406                       # Number of instructions dispatched to IQ (Count)
board.processor.cores9.core.iew.dispSquashedInsts            9                       # Number of squashed instructions skipped by dispatch (Count)
board.processor.cores9.core.iew.dispLoadInsts        72922                       # Number of dispatched load instructions (Count)
board.processor.cores9.core.iew.dispStoreInsts        29798                       # Number of dispatched store instructions (Count)
board.processor.cores9.core.iew.dispNonSpecInsts         4178                       # Number of dispatched non-speculative instructions (Count)
board.processor.cores9.core.iew.iqFullEvents         4123                       # Number of times the IQ has become full, causing a stall (Count)
board.processor.cores9.core.iew.lsqFullEvents          259                       # Number of times the LSQ has become full, causing a stall (Count)
board.processor.cores9.core.iew.memOrderViolationEvents         2055                       # Number of memory order violations (Count)
board.processor.cores9.core.iew.predictedTakenIncorrect           10                       # Number of branches that were predicted taken incorrectly (Count)
board.processor.cores9.core.iew.predictedNotTakenIncorrect          216                       # Number of branches that were predicted not taken incorrectly (Count)
board.processor.cores9.core.iew.branchMispredicts          226                       # Number of branch mispredicts detected at execute (Count)
board.processor.cores9.core.iew.instsToCommit       187148                       # Cumulative count of insts sent to commit (Count)
board.processor.cores9.core.iew.writebackCount       186932                       # Cumulative count of insts written-back (Count)
board.processor.cores9.core.iew.producerInst       130633                       # Number of instructions producing a value (Count)
board.processor.cores9.core.iew.consumerInst       252263                       # Number of instructions consuming a value (Count)
board.processor.cores9.core.iew.wbRate       0.411822                       # Insts written-back per cycle ((Count/Cycle))
board.processor.cores9.core.iew.wbFanout     0.517844                       # Average fanout of values written-back ((Count/Count))
board.processor.cores9.core.interrupts.clk_domain.clock         5328                       # Clock period in ticks (Tick)
board.processor.cores9.core.lsq0.forwLoads         4276                       # Number of loads that had data forwarded from stores (Count)
board.processor.cores9.core.lsq0.squashedLoads        43638                       # Number of loads squashed (Count)
board.processor.cores9.core.lsq0.ignoredResponses            0                       # Number of memory responses ignored because the instruction is squashed (Count)
board.processor.cores9.core.lsq0.memOrderViolation         2055                       # Number of memory ordering violations (Count)
board.processor.cores9.core.lsq0.squashedStores        16773                       # Number of stores squashed (Count)
board.processor.cores9.core.lsq0.rescheduledLoads            0                       # Number of loads that were rescheduled (Count)
board.processor.cores9.core.lsq0.blockedByCache            3                       # Number of times an access to memory failed due to the cache being blocked (Count)
board.processor.cores9.core.lsq0.loadToUse::samples        29284                       # Distribution of cycle latency between the first time a load is issued and its completion (Unspecified)
board.processor.cores9.core.lsq0.loadToUse::mean    12.492009                       # Distribution of cycle latency between the first time a load is issued and its completion (Unspecified)
board.processor.cores9.core.lsq0.loadToUse::stdev    38.551825                       # Distribution of cycle latency between the first time a load is issued and its completion (Unspecified)
board.processor.cores9.core.lsq0.loadToUse::0-9        27154     92.73%     92.73% # Distribution of cycle latency between the first time a load is issued and its completion (Unspecified)
board.processor.cores9.core.lsq0.loadToUse::10-19           88      0.30%     93.03% # Distribution of cycle latency between the first time a load is issued and its completion (Unspecified)
board.processor.cores9.core.lsq0.loadToUse::60-69            1      0.00%     93.03% # Distribution of cycle latency between the first time a load is issued and its completion (Unspecified)
board.processor.cores9.core.lsq0.loadToUse::70-79            1      0.00%     93.03% # Distribution of cycle latency between the first time a load is issued and its completion (Unspecified)
board.processor.cores9.core.lsq0.loadToUse::80-89            4      0.01%     93.05% # Distribution of cycle latency between the first time a load is issued and its completion (Unspecified)
board.processor.cores9.core.lsq0.loadToUse::90-99           25      0.09%     93.13% # Distribution of cycle latency between the first time a load is issued and its completion (Unspecified)
board.processor.cores9.core.lsq0.loadToUse::100-109            9      0.03%     93.16% # Distribution of cycle latency between the first time a load is issued and its completion (Unspecified)
board.processor.cores9.core.lsq0.loadToUse::110-119         1366      4.66%     97.83% # Distribution of cycle latency between the first time a load is issued and its completion (Unspecified)
board.processor.cores9.core.lsq0.loadToUse::120-129          105      0.36%     98.19% # Distribution of cycle latency between the first time a load is issued and its completion (Unspecified)
board.processor.cores9.core.lsq0.loadToUse::130-139            6      0.02%     98.21% # Distribution of cycle latency between the first time a load is issued and its completion (Unspecified)
board.processor.cores9.core.lsq0.loadToUse::140-149            9      0.03%     98.24% # Distribution of cycle latency between the first time a load is issued and its completion (Unspecified)
board.processor.cores9.core.lsq0.loadToUse::150-159           12      0.04%     98.28% # Distribution of cycle latency between the first time a load is issued and its completion (Unspecified)
board.processor.cores9.core.lsq0.loadToUse::160-169            1      0.00%     98.28% # Distribution of cycle latency between the first time a load is issued and its completion (Unspecified)
board.processor.cores9.core.lsq0.loadToUse::170-179          163      0.56%     98.84% # Distribution of cycle latency between the first time a load is issued and its completion (Unspecified)
board.processor.cores9.core.lsq0.loadToUse::180-189          219      0.75%     99.59% # Distribution of cycle latency between the first time a load is issued and its completion (Unspecified)
board.processor.cores9.core.lsq0.loadToUse::190-199           16      0.05%     99.64% # Distribution of cycle latency between the first time a load is issued and its completion (Unspecified)
board.processor.cores9.core.lsq0.loadToUse::200-209            5      0.02%     99.66% # Distribution of cycle latency between the first time a load is issued and its completion (Unspecified)
board.processor.cores9.core.lsq0.loadToUse::210-219            9      0.03%     99.69% # Distribution of cycle latency between the first time a load is issued and its completion (Unspecified)
board.processor.cores9.core.lsq0.loadToUse::220-229            1      0.00%     99.69% # Distribution of cycle latency between the first time a load is issued and its completion (Unspecified)
board.processor.cores9.core.lsq0.loadToUse::230-239           43      0.15%     99.84% # Distribution of cycle latency between the first time a load is issued and its completion (Unspecified)
board.processor.cores9.core.lsq0.loadToUse::240-249            3      0.01%     99.85% # Distribution of cycle latency between the first time a load is issued and its completion (Unspecified)
board.processor.cores9.core.lsq0.loadToUse::250-259            3      0.01%     99.86% # Distribution of cycle latency between the first time a load is issued and its completion (Unspecified)
board.processor.cores9.core.lsq0.loadToUse::260-269            3      0.01%     99.87% # Distribution of cycle latency between the first time a load is issued and its completion (Unspecified)
board.processor.cores9.core.lsq0.loadToUse::270-279            2      0.01%     99.88% # Distribution of cycle latency between the first time a load is issued and its completion (Unspecified)
board.processor.cores9.core.lsq0.loadToUse::280-289           12      0.04%     99.92% # Distribution of cycle latency between the first time a load is issued and its completion (Unspecified)
board.processor.cores9.core.lsq0.loadToUse::290-299            6      0.02%     99.94% # Distribution of cycle latency between the first time a load is issued and its completion (Unspecified)
board.processor.cores9.core.lsq0.loadToUse::overflows           18      0.06%    100.00% # Distribution of cycle latency between the first time a load is issued and its completion (Unspecified)
board.processor.cores9.core.lsq0.loadToUse::min_value            2                       # Distribution of cycle latency between the first time a load is issued and its completion (Unspecified)
board.processor.cores9.core.lsq0.loadToUse::max_value         1557                       # Distribution of cycle latency between the first time a load is issued and its completion (Unspecified)
board.processor.cores9.core.lsq0.loadToUse::total        29284                       # Distribution of cycle latency between the first time a load is issued and its completion (Unspecified)
board.processor.cores9.core.mmu.dtb.rdAccesses        45932                       # TLB accesses on read requests (Count)
board.processor.cores9.core.mmu.dtb.wrAccesses        17251                       # TLB accesses on write requests (Count)
board.processor.cores9.core.mmu.dtb.rdMisses          100                       # TLB misses on read requests (Count)
board.processor.cores9.core.mmu.dtb.wrMisses           30                       # TLB misses on write requests (Count)
board.processor.cores9.core.mmu.dtb.walker.power_state.pwrStateResidencyTicks::UNDEFINED    533317815                       # Cumulative time (in ticks) in various power states (Tick)
board.processor.cores9.core.mmu.itb.rdAccesses            0                       # TLB accesses on read requests (Count)
board.processor.cores9.core.mmu.itb.wrAccesses        33927                       # TLB accesses on write requests (Count)
board.processor.cores9.core.mmu.itb.rdMisses            0                       # TLB misses on read requests (Count)
board.processor.cores9.core.mmu.itb.wrMisses          154                       # TLB misses on write requests (Count)
board.processor.cores9.core.mmu.itb.walker.power_state.pwrStateResidencyTicks::UNDEFINED    533317815                       # Cumulative time (in ticks) in various power states (Tick)
board.processor.cores9.core.power_state.numTransitions            2                       # Number of power state transitions (Count)
board.processor.cores9.core.power_state.ticksClkGated::samples            1                       # Distribution of time spent in the clock gated state (Tick)
board.processor.cores9.core.power_state.ticksClkGated::mean       495171                       # Distribution of time spent in the clock gated state (Tick)
board.processor.cores9.core.power_state.ticksClkGated::1000-5e+10            1    100.00%    100.00% # Distribution of time spent in the clock gated state (Tick)
board.processor.cores9.core.power_state.ticksClkGated::min_value       495171                       # Distribution of time spent in the clock gated state (Tick)
board.processor.cores9.core.power_state.ticksClkGated::max_value       495171                       # Distribution of time spent in the clock gated state (Tick)
board.processor.cores9.core.power_state.ticksClkGated::total            1                       # Distribution of time spent in the clock gated state (Tick)
board.processor.cores9.core.power_state.pwrStateResidencyTicks::ON    532822644                       # Cumulative time (in ticks) in various power states (Tick)
board.processor.cores9.core.power_state.pwrStateResidencyTicks::CLK_GATED       495171                       # Cumulative time (in ticks) in various power states (Tick)
board.processor.cores9.core.rename.squashCycles         2276                       # Number of cycles rename is squashing (Cycle)
board.processor.cores9.core.rename.idleCycles        28155                       # Number of cycles rename is idle (Cycle)
board.processor.cores9.core.rename.blockCycles       341345                       # Number of cycles rename is blocking (Cycle)
board.processor.cores9.core.rename.serializeStallCycles            0                       # count of cycles rename stalled for serializing inst (Cycle)
board.processor.cores9.core.rename.runCycles        38559                       # Number of cycles rename is running (Cycle)
board.processor.cores9.core.rename.unblockCycles        33787                       # Number of cycles rename is unblocking (Cycle)
board.processor.cores9.core.rename.renamedInsts       300258                       # Number of instructions processed by rename (Count)
board.processor.cores9.core.rename.ROBFullEvents           25                       # Number of times rename has blocked due to ROB full (Count)
board.processor.cores9.core.rename.IQFullEvents        20646                       # Number of times rename has blocked due to IQ full (Count)
board.processor.cores9.core.rename.LQFullEvents           64                       # Number of times rename has blocked due to LQ full (Count)
board.processor.cores9.core.rename.SQFullEvents        10946                       # Number of times rename has blocked due to SQ full (Count)
board.processor.cores9.core.rename.renamedOperands       434292                       # Number of destination operands rename has renamed (Count)
board.processor.cores9.core.rename.lookups       945618                       # Number of register rename lookups that rename has made (Count)
board.processor.cores9.core.rename.intLookups       443170                       # Number of integer rename lookups (Count)
board.processor.cores9.core.rename.fpLookups          690                       # Number of floating rename lookups (Count)
board.processor.cores9.core.rename.committedMaps       162431                       # Number of HB maps that are committed (Count)
board.processor.cores9.core.rename.undoneMaps       271861                       # Number of HB maps that are undone due to squashing (Count)
board.processor.cores9.core.rename.serializing            0                       # count of serializing insts renamed (Count)
board.processor.cores9.core.rename.tempSerializing            0                       # count of temporary serializing insts renamed (Count)
board.processor.cores9.core.rename.skidInsts        60900                       # count of insts added to the skid buffer (Count)
board.processor.cores9.core.rob.reads          701526                       # The number of ROB reads (Count)
board.processor.cores9.core.rob.writes         589534                       # The number of ROB writes (Count)
board.processor.cores9.core.thread_0.numInsts        74641                       # Number of Instructions committed (Count)
board.processor.cores9.core.thread_0.numOps       112535                       # Number of Ops committed (Count)
board.processor.cores9.core.thread_0.numMemRefs            0                       # Number of Memory References (Count)
board.workload.inst.arm                             0                       # number of arm instructions executed (Count)
board.workload.inst.quiesce                         0                       # number of quiesce instructions executed (Count)

---------- End Simulation Statistics   ----------
