
---------- Begin Simulation Statistics ----------
simSeconds                                   0.000128                       # Number of seconds simulated (Second)
simTicks                                    127745127                       # Number of ticks simulated (Tick)
finalTick                                   456383826                       # Number of ticks from beginning of simulation (restored from checkpoints and never reset) (Tick)
simFreq                                  1000000000000                       # The number of ticks per simulated second ((Tick/Second))
hostSeconds                                     24.81                       # Real time elapsed on the host (Second)
hostTickRate                                  5149557                       # The number of ticks simulated per host second (ticks/s) ((Tick/Second))
hostMemory                                    1753472                       # Number of bytes of host memory used (Byte)
simInsts                                      1797579                       # Number of instructions simulated (Count)
simOps                                        3023857                       # Number of ops (including micro ops) simulated (Count)
hostInstRate                                    72462                       # Simulator instruction rate (inst/s) ((Count/Second))
hostOpRate                                     121895                       # Simulator op (including micro ops) rate (op/s) ((Count/Second))
board.cache_hierarchy.ruby_system.delayHistogram::bucket_size           64                       # delay histogram for all message (Unspecified)
board.cache_hierarchy.ruby_system.delayHistogram::max_bucket          639                       # delay histogram for all message (Unspecified)
board.cache_hierarchy.ruby_system.delayHistogram::samples        21711                       # delay histogram for all message (Unspecified)
board.cache_hierarchy.ruby_system.delayHistogram::mean     0.442909                       # delay histogram for all message (Unspecified)
board.cache_hierarchy.ruby_system.delayHistogram::stdev     3.871681                       # delay histogram for all message (Unspecified)
board.cache_hierarchy.ruby_system.delayHistogram |       21704     99.97%     99.97% |           1      0.00%     99.97% |           5      0.02%    100.00% |           0      0.00%    100.00% |           0      0.00%    100.00% |           1      0.00%    100.00% |           0      0.00%    100.00% |           0      0.00%    100.00% |           0      0.00%    100.00% |           0      0.00%    100.00% # delay histogram for all message (Unspecified)
board.cache_hierarchy.ruby_system.delayHistogram::total        21711                       # delay histogram for all message (Unspecified)
board.cache_hierarchy.ruby_system.m_outstandReqHistSeqr::bucket_size            2                       (Unspecified)
board.cache_hierarchy.ruby_system.m_outstandReqHistSeqr::max_bucket           19                       (Unspecified)
board.cache_hierarchy.ruby_system.m_outstandReqHistSeqr::samples      1103303                       (Unspecified)
board.cache_hierarchy.ruby_system.m_outstandReqHistSeqr::mean     1.178053                       (Unspecified)
board.cache_hierarchy.ruby_system.m_outstandReqHistSeqr::gmean     1.115120                       (Unspecified)
board.cache_hierarchy.ruby_system.m_outstandReqHistSeqr::stdev     0.515381                       (Unspecified)
board.cache_hierarchy.ruby_system.m_outstandReqHistSeqr |      958248     86.85%     86.85% |      140657     12.75%     99.60% |        3833      0.35%     99.95% |         391      0.04%     99.98% |          95      0.01%     99.99% |          28      0.00%    100.00% |          19      0.00%    100.00% |          14      0.00%    100.00% |          18      0.00%    100.00% |           0      0.00%    100.00% (Unspecified)
board.cache_hierarchy.ruby_system.m_outstandReqHistSeqr::total      1103303                       (Unspecified)
board.cache_hierarchy.ruby_system.m_latencyHistSeqr::bucket_size          256                       (Unspecified)
board.cache_hierarchy.ruby_system.m_latencyHistSeqr::max_bucket         2559                       (Unspecified)
board.cache_hierarchy.ruby_system.m_latencyHistSeqr::samples      1103652                       (Unspecified)
board.cache_hierarchy.ruby_system.m_latencyHistSeqr::mean     1.895935                       (Unspecified)
board.cache_hierarchy.ruby_system.m_latencyHistSeqr::gmean     1.031327                       (Unspecified)
board.cache_hierarchy.ruby_system.m_latencyHistSeqr::stdev    12.896107                       (Unspecified)
board.cache_hierarchy.ruby_system.m_latencyHistSeqr |     1103003     99.94%     99.94% |         635      0.06%    100.00% |           0      0.00%    100.00% |           1      0.00%    100.00% |          11      0.00%    100.00% |           2      0.00%    100.00% |           0      0.00%    100.00% |           0      0.00%    100.00% |           0      0.00%    100.00% |           0      0.00%    100.00% (Unspecified)
board.cache_hierarchy.ruby_system.m_latencyHistSeqr::total      1103652                       (Unspecified)
board.cache_hierarchy.ruby_system.m_hitLatencyHistSeqr::bucket_size           32                       (Unspecified)
board.cache_hierarchy.ruby_system.m_hitLatencyHistSeqr::max_bucket          319                       (Unspecified)
board.cache_hierarchy.ruby_system.m_hitLatencyHistSeqr::samples      1096631                       (Unspecified)
board.cache_hierarchy.ruby_system.m_hitLatencyHistSeqr::mean     1.000880                       (Unspecified)
board.cache_hierarchy.ruby_system.m_hitLatencyHistSeqr::gmean     1.000230                       (Unspecified)
board.cache_hierarchy.ruby_system.m_hitLatencyHistSeqr::stdev     0.382267                       (Unspecified)
board.cache_hierarchy.ruby_system.m_hitLatencyHistSeqr |     1096628    100.00%    100.00% |           0      0.00%    100.00% |           1      0.00%    100.00% |           0      0.00%    100.00% |           0      0.00%    100.00% |           0      0.00%    100.00% |           0      0.00%    100.00% |           0      0.00%    100.00% |           2      0.00%    100.00% |           0      0.00%    100.00% (Unspecified)
board.cache_hierarchy.ruby_system.m_hitLatencyHistSeqr::total      1096631                       (Unspecified)
board.cache_hierarchy.ruby_system.m_missLatencyHistSeqr::bucket_size          256                       (Unspecified)
board.cache_hierarchy.ruby_system.m_missLatencyHistSeqr::max_bucket         2559                       (Unspecified)
board.cache_hierarchy.ruby_system.m_missLatencyHistSeqr::samples         7021                       (Unspecified)
board.cache_hierarchy.ruby_system.m_missLatencyHistSeqr::mean   141.697194                       (Unspecified)
board.cache_hierarchy.ruby_system.m_missLatencyHistSeqr::gmean   123.083821                       (Unspecified)
board.cache_hierarchy.ruby_system.m_missLatencyHistSeqr::stdev    80.319662                       (Unspecified)
board.cache_hierarchy.ruby_system.m_missLatencyHistSeqr |        6374     90.78%     90.78% |         633      9.02%     99.80% |           0      0.00%     99.80% |           1      0.01%     99.81% |          11      0.16%     99.97% |           2      0.03%    100.00% |           0      0.00%    100.00% |           0      0.00%    100.00% |           0      0.00%    100.00% |           0      0.00%    100.00% (Unspecified)
board.cache_hierarchy.ruby_system.m_missLatencyHistSeqr::total         7021                       (Unspecified)
board.cache_hierarchy.ruby_system.delayVCHist.vnet_0::bucket_size           64                       # delay histogram for vnet_0 (Unspecified)
board.cache_hierarchy.ruby_system.delayVCHist.vnet_0::max_bucket          639                       # delay histogram for vnet_0 (Unspecified)
board.cache_hierarchy.ruby_system.delayVCHist.vnet_0::samples        11156                       # delay histogram for vnet_0 (Unspecified)
board.cache_hierarchy.ruby_system.delayVCHist.vnet_0::mean     0.416458                       # delay histogram for vnet_0 (Unspecified)
board.cache_hierarchy.ruby_system.delayVCHist.vnet_0::stdev     5.066082                       # delay histogram for vnet_0 (Unspecified)
board.cache_hierarchy.ruby_system.delayVCHist.vnet_0 |       11149     99.94%     99.94% |           1      0.01%     99.95% |           5      0.04%     99.99% |           0      0.00%     99.99% |           0      0.00%     99.99% |           1      0.01%    100.00% |           0      0.00%    100.00% |           0      0.00%    100.00% |           0      0.00%    100.00% |           0      0.00%    100.00% # delay histogram for vnet_0 (Unspecified)
board.cache_hierarchy.ruby_system.delayVCHist.vnet_0::total        11156                       # delay histogram for vnet_0 (Unspecified)
board.cache_hierarchy.ruby_system.delayVCHist.vnet_1::bucket_size            4                       # delay histogram for vnet_1 (Unspecified)
board.cache_hierarchy.ruby_system.delayVCHist.vnet_1::max_bucket           39                       # delay histogram for vnet_1 (Unspecified)
board.cache_hierarchy.ruby_system.delayVCHist.vnet_1::samples         9434                       # delay histogram for vnet_1 (Unspecified)
board.cache_hierarchy.ruby_system.delayVCHist.vnet_1::mean     0.526818                       # delay histogram for vnet_1 (Unspecified)
board.cache_hierarchy.ruby_system.delayVCHist.vnet_1::stdev     2.029197                       # delay histogram for vnet_1 (Unspecified)
board.cache_hierarchy.ruby_system.delayVCHist.vnet_1 |        8787     93.14%     93.14% |         234      2.48%     95.62% |         359      3.81%     99.43% |          23      0.24%     99.67% |          29      0.31%     99.98% |           1      0.01%     99.99% |           1      0.01%    100.00% |           0      0.00%    100.00% |           0      0.00%    100.00% |           0      0.00%    100.00% # delay histogram for vnet_1 (Unspecified)
board.cache_hierarchy.ruby_system.delayVCHist.vnet_1::total         9434                       # delay histogram for vnet_1 (Unspecified)
board.cache_hierarchy.ruby_system.delayVCHist.vnet_2::bucket_size            1                       # delay histogram for vnet_2 (Unspecified)
board.cache_hierarchy.ruby_system.delayVCHist.vnet_2::max_bucket            9                       # delay histogram for vnet_2 (Unspecified)
board.cache_hierarchy.ruby_system.delayVCHist.vnet_2::samples         1121                       # delay histogram for vnet_2 (Unspecified)
board.cache_hierarchy.ruby_system.delayVCHist.vnet_2 |        1121    100.00%    100.00% |           0      0.00%    100.00% |           0      0.00%    100.00% |           0      0.00%    100.00% |           0      0.00%    100.00% |           0      0.00%    100.00% |           0      0.00%    100.00% |           0      0.00%    100.00% |           0      0.00%    100.00% |           0      0.00%    100.00% # delay histogram for vnet_2 (Unspecified)
board.cache_hierarchy.ruby_system.delayVCHist.vnet_2::total         1121                       # delay histogram for vnet_2 (Unspecified)
board.cache_hierarchy.ruby_system.Directory_Controller.Fetch         1145      0.00%      0.00% (Unspecified)
board.cache_hierarchy.ruby_system.Directory_Controller.Memory_Data         1145      0.00%      0.00% (Unspecified)
board.cache_hierarchy.ruby_system.Directory_Controller.I.Fetch         1145      0.00%      0.00% (Unspecified)
board.cache_hierarchy.ruby_system.Directory_Controller.IM.Memory_Data         1145      0.00%      0.00% (Unspecified)
board.cache_hierarchy.ruby_system.L1Cache_Controller.Load |       13391      3.50%      3.50% |       23108      6.03%      9.53% |       23099      6.03%     15.56% |       23083      6.03%     21.59% |       23093      6.03%     27.62% |       23114      6.04%     33.66% |       23084      6.03%     39.68% |       23094      6.03%     45.71% |       23098      6.03%     51.75% |       23102      6.03%     57.78% |       23095      6.03%     63.81% |       23091      6.03%     69.84% |       23103      6.03%     75.87% |       23100      6.03%     81.90% |       23102      6.03%     87.94% |       23098      6.03%     93.97% |       23097      6.03%    100.00% (Unspecified)
board.cache_hierarchy.ruby_system.L1Cache_Controller.Load::total       382952                       (Unspecified)
board.cache_hierarchy.ruby_system.L1Cache_Controller.Ifetch |       20777      4.86%      4.86% |       25385      5.94%     10.81% |       25421      5.95%     16.76% |       25462      5.96%     22.72% |       25456      5.96%     28.68% |       25406      5.95%     34.62% |       25378      5.94%     40.56% |       25389      5.94%     46.51% |       25383      5.94%     52.45% |       25391      5.94%     58.39% |       25393      5.94%     64.34% |       25392      5.94%     70.28% |       25398      5.95%     76.23% |       25382      5.94%     82.17% |       25391      5.94%     88.11% |       25401      5.95%     94.06% |       25382      5.94%    100.00% (Unspecified)
board.cache_hierarchy.ruby_system.L1Cache_Controller.Ifetch::total       427187                       (Unspecified)
board.cache_hierarchy.ruby_system.L1Cache_Controller.Store |       22865      7.79%      7.79% |       17141      5.84%     13.63% |       17134      5.84%     19.47% |       17134      5.84%     25.31% |       17134      5.84%     31.14% |       16842      5.74%     36.88% |       16842      5.74%     42.62% |       16842      5.74%     48.36% |       16842      5.74%     54.10% |       16842      5.74%     59.83% |       16842      5.74%     65.57% |       16842      5.74%     71.31% |       16842      5.74%     77.05% |       16842      5.74%     82.79% |       16842      5.74%     88.52% |       16842      5.74%     94.26% |       16842      5.74%    100.00% (Unspecified)
board.cache_hierarchy.ruby_system.L1Cache_Controller.Store::total       293512                       (Unspecified)
board.cache_hierarchy.ruby_system.L1Cache_Controller.Inv |          87     30.85%     30.85% |          15      5.32%     36.17% |           4      1.42%     37.59% |          16      5.67%     43.26% |          13      4.61%     47.87% |          12      4.26%     52.13% |          12      4.26%     56.38% |          13      4.61%     60.99% |          12      4.26%     65.25% |          14      4.96%     70.21% |          14      4.96%     75.18% |          14      4.96%     80.14% |          15      5.32%     85.46% |          15      5.32%     90.78% |          14      4.96%     95.74% |           9      3.19%     98.94% |           3      1.06%    100.00% (Unspecified)
board.cache_hierarchy.ruby_system.L1Cache_Controller.Inv::total          282                       (Unspecified)
board.cache_hierarchy.ruby_system.L1Cache_Controller.L1_Replacement |         860     99.54%     99.54% |           0      0.00%     99.54% |           0      0.00%     99.54% |           0      0.00%     99.54% |           0      0.00%     99.54% |           2      0.23%     99.77% |           0      0.00%     99.77% |           0      0.00%     99.77% |           0      0.00%     99.77% |           2      0.23%    100.00% |           0      0.00%    100.00% |           0      0.00%    100.00% |           0      0.00%    100.00% |           0      0.00%    100.00% |           0      0.00%    100.00% |           0      0.00%    100.00% |           0      0.00%    100.00% (Unspecified)
board.cache_hierarchy.ruby_system.L1Cache_Controller.L1_Replacement::total          864                       (Unspecified)
board.cache_hierarchy.ruby_system.L1Cache_Controller.Fwd_GETX |          43     19.91%     19.91% |          15      6.94%     26.85% |           5      2.31%     29.17% |          14      6.48%     35.65% |          15      6.94%     42.59% |           1      0.46%     43.06% |          14      6.48%     49.54% |          13      6.02%     55.56% |          13      6.02%     61.57% |          14      6.48%     68.06% |          14      6.48%     74.54% |          13      6.02%     80.56% |          13      6.02%     86.57% |          13      6.02%     92.59% |          13      6.02%     98.61% |           1      0.46%     99.07% |           2      0.93%    100.00% (Unspecified)
board.cache_hierarchy.ruby_system.L1Cache_Controller.Fwd_GETX::total          216                       (Unspecified)
board.cache_hierarchy.ruby_system.L1Cache_Controller.Fwd_GETS |         398     63.88%     63.88% |          22      3.53%     67.42% |           9      1.44%     68.86% |          16      2.57%     71.43% |          16      2.57%     74.00% |          10      1.61%     75.60% |          15      2.41%     78.01% |          15      2.41%     80.42% |          16      2.57%     82.99% |          14      2.25%     85.23% |          15      2.41%     87.64% |          16      2.57%     90.21% |          15      2.41%     92.62% |          15      2.41%     95.02% |          15      2.41%     97.43% |          10      1.61%     99.04% |           6      0.96%    100.00% (Unspecified)
board.cache_hierarchy.ruby_system.L1Cache_Controller.Fwd_GETS::total          623                       (Unspecified)
board.cache_hierarchy.ruby_system.L1Cache_Controller.Data |           3     50.00%     50.00% |           0      0.00%     50.00% |           0      0.00%     50.00% |           1     16.67%     66.67% |           2     33.33%    100.00% |           0      0.00%    100.00% |           0      0.00%    100.00% |           0      0.00%    100.00% |           0      0.00%    100.00% |           0      0.00%    100.00% |           0      0.00%    100.00% |           0      0.00%    100.00% |           0      0.00%    100.00% |           0      0.00%    100.00% |           0      0.00%    100.00% |           0      0.00%    100.00% |           0      0.00%    100.00% (Unspecified)
board.cache_hierarchy.ruby_system.L1Cache_Controller.Data::total            6                       (Unspecified)
board.cache_hierarchy.ruby_system.L1Cache_Controller.Data_Exclusive |          55      2.84%      2.84% |         140      7.24%     10.08% |         132      6.83%     16.91% |         132      6.83%     23.73% |         132      6.83%     30.56% |         132      6.83%     37.38% |         133      6.88%     44.26% |         133      6.88%     51.14% |         133      6.88%     58.01% |         132      6.83%     64.84% |         133      6.88%     71.72% |         133      6.88%     78.59% |         132      6.83%     85.42% |         126      6.51%     91.93% |          76      3.93%     95.86% |          38      1.96%     97.83% |          42      2.17%    100.00% (Unspecified)
board.cache_hierarchy.ruby_system.L1Cache_Controller.Data_Exclusive::total         1934                       (Unspecified)
board.cache_hierarchy.ruby_system.L1Cache_Controller.DataS_fromL1 |          65     10.43%     10.43% |          18      2.89%     13.32% |          20      3.21%     16.53% |          17      2.73%     19.26% |          15      2.41%     21.67% |          21      3.37%     25.04% |          20      3.21%     28.25% |          21      3.37%     31.62% |          19      3.05%     34.67% |          19      3.05%     37.72% |          21      3.37%     41.09% |          20      3.21%     44.30% |          20      3.21%     47.51% |          26      4.17%     51.69% |          76     12.20%     63.88% |         115     18.46%     82.34% |         110     17.66%    100.00% (Unspecified)
board.cache_hierarchy.ruby_system.L1Cache_Controller.DataS_fromL1::total          623                       (Unspecified)
board.cache_hierarchy.ruby_system.L1Cache_Controller.Data_all_Acks |         779     18.43%     18.43% |         250      5.91%     24.34% |         252      5.96%     30.31% |         262      6.20%     36.50% |         262      6.20%     42.70% |         208      4.92%     47.62% |         200      4.73%     52.35% |         201      4.76%     57.11% |         202      4.78%     61.89% |         208      4.92%     66.81% |         199      4.71%     71.52% |         200      4.73%     76.25% |         200      4.73%     80.98% |         202      4.78%     85.76% |         202      4.78%     90.54% |         201      4.76%     95.29% |         199      4.71%    100.00% (Unspecified)
board.cache_hierarchy.ruby_system.L1Cache_Controller.Data_all_Acks::total         4227                       (Unspecified)
board.cache_hierarchy.ruby_system.L1Cache_Controller.Ack |          43     15.58%     15.58% |           9      3.26%     18.84% |          14      5.07%     23.91% |          11      3.99%     27.90% |          16      5.80%     33.70% |          12      4.35%     38.04% |          16      5.80%     43.84% |          15      5.43%     49.28% |          16      5.80%     55.07% |          14      5.07%     60.14% |          17      6.16%     66.30% |          17      6.16%     72.46% |          15      5.43%     77.90% |          15      5.43%     83.33% |          15      5.43%     88.77% |          15      5.43%     94.20% |          16      5.80%    100.00% (Unspecified)
board.cache_hierarchy.ruby_system.L1Cache_Controller.Ack::total          276                       (Unspecified)
board.cache_hierarchy.ruby_system.L1Cache_Controller.Ack_all |          37     15.61%     15.61% |           8      3.38%     18.99% |          10      4.22%     23.21% |          10      4.22%     27.43% |          13      5.49%     32.91% |          11      4.64%     37.55% |          13      5.49%     43.04% |          14      5.91%     48.95% |          14      5.91%     54.85% |          12      5.06%     59.92% |          15      6.33%     66.24% |          15      6.33%     72.57% |          13      5.49%     78.06% |          13      5.49%     83.54% |          13      5.49%     89.03% |          13      5.49%     94.51% |          13      5.49%    100.00% (Unspecified)
board.cache_hierarchy.ruby_system.L1Cache_Controller.Ack_all::total          237                       (Unspecified)
board.cache_hierarchy.ruby_system.L1Cache_Controller.WB_Ack |         363    100.00%    100.00% |           0      0.00%    100.00% |           0      0.00%    100.00% |           0      0.00%    100.00% |           0      0.00%    100.00% |           0      0.00%    100.00% |           0      0.00%    100.00% |           0      0.00%    100.00% |           0      0.00%    100.00% |           0      0.00%    100.00% |           0      0.00%    100.00% |           0      0.00%    100.00% |           0      0.00%    100.00% |           0      0.00%    100.00% |           0      0.00%    100.00% |           0      0.00%    100.00% |           0      0.00%    100.00% (Unspecified)
board.cache_hierarchy.ruby_system.L1Cache_Controller.WB_Ack::total          363                       (Unspecified)
board.cache_hierarchy.ruby_system.L1Cache_Controller.NP.Load |         127      4.68%      4.68% |         158      5.83%     10.51% |         157      5.79%     16.30% |         158      5.83%     22.13% |         158      5.83%     27.96% |         163      6.01%     33.97% |         162      5.98%     39.95% |         163      6.01%     45.96% |         163      6.01%     51.97% |         163      6.01%     57.99% |         163      6.01%     64.00% |         163      6.01%     70.01% |         162      5.98%     75.99% |         162      5.98%     81.96% |         163      6.01%     87.97% |         163      6.01%     93.99% |         163      6.01%    100.00% (Unspecified)
board.cache_hierarchy.ruby_system.L1Cache_Controller.NP.Load::total         2711                       (Unspecified)
board.cache_hierarchy.ruby_system.L1Cache_Controller.NP.Ifetch |         338     11.26%     11.26% |         182      6.06%     17.32% |         184      6.13%     23.44% |         186      6.19%     29.64% |         186      6.19%     35.83% |         165      5.49%     41.33% |         159      5.29%     46.62% |         161      5.36%     51.98% |         161      5.36%     57.34% |         164      5.46%     62.80% |         159      5.29%     68.10% |         160      5.33%     73.43% |         159      5.29%     78.72% |         160      5.33%     84.05% |         160      5.33%     89.38% |         160      5.33%     94.71% |         159      5.29%    100.00% (Unspecified)
board.cache_hierarchy.ruby_system.L1Cache_Controller.NP.Ifetch::total         3003                       (Unspecified)
board.cache_hierarchy.ruby_system.L1Cache_Controller.NP.Store |         395     41.15%     41.15% |          61      6.35%     47.50% |          61      6.35%     53.85% |          61      6.35%     60.21% |          61      6.35%     66.56% |          27      2.81%     69.37% |          27      2.81%     72.19% |          27      2.81%     75.00% |          27      2.81%     77.81% |          27      2.81%     80.62% |          27      2.81%     83.44% |          27      2.81%     86.25% |          27      2.81%     89.06% |          27      2.81%     91.87% |          26      2.71%     94.58% |          26      2.71%     97.29% |          26      2.71%    100.00% (Unspecified)
board.cache_hierarchy.ruby_system.L1Cache_Controller.NP.Store::total          960                       (Unspecified)
board.cache_hierarchy.ruby_system.L1Cache_Controller.NP.Inv |          10    100.00%    100.00% |           0      0.00%    100.00% |           0      0.00%    100.00% |           0      0.00%    100.00% |           0      0.00%    100.00% |           0      0.00%    100.00% |           0      0.00%    100.00% |           0      0.00%    100.00% |           0      0.00%    100.00% |           0      0.00%    100.00% |           0      0.00%    100.00% |           0      0.00%    100.00% |           0      0.00%    100.00% |           0      0.00%    100.00% |           0      0.00%    100.00% |           0      0.00%    100.00% |           0      0.00%    100.00% (Unspecified)
board.cache_hierarchy.ruby_system.L1Cache_Controller.NP.Inv::total           10                       (Unspecified)
board.cache_hierarchy.ruby_system.L1Cache_Controller.I.Load |          36     39.56%     39.56% |           4      4.40%     43.96% |           1      1.10%     45.05% |           5      5.49%     50.55% |           5      5.49%     56.04% |           4      4.40%     60.44% |           4      4.40%     64.84% |           4      4.40%     69.23% |           2      2.20%     71.43% |           3      3.30%     74.73% |           4      4.40%     79.12% |           3      3.30%     82.42% |           3      3.30%     85.71% |           4      4.40%     90.11% |           3      3.30%     93.41% |           4      4.40%     97.80% |           2      2.20%    100.00% (Unspecified)
board.cache_hierarchy.ruby_system.L1Cache_Controller.I.Load::total           91                       (Unspecified)
board.cache_hierarchy.ruby_system.L1Cache_Controller.I.Store |           5     23.81%     23.81% |           1      4.76%     28.57% |           1      4.76%     33.33% |           1      4.76%     38.10% |           1      4.76%     42.86% |           2      9.52%     52.38% |           1      4.76%     57.14% |           0      0.00%     57.14% |           1      4.76%     61.90% |           2      9.52%     71.43% |           0      0.00%     71.43% |           0      0.00%     71.43% |           1      4.76%     76.19% |           1      4.76%     80.95% |           2      9.52%     90.48% |           1      4.76%     95.24% |           1      4.76%    100.00% (Unspecified)
board.cache_hierarchy.ruby_system.L1Cache_Controller.I.Store::total           21                       (Unspecified)
board.cache_hierarchy.ruby_system.L1Cache_Controller.I.L1_Replacement |          57    100.00%    100.00% |           0      0.00%    100.00% |           0      0.00%    100.00% |           0      0.00%    100.00% |           0      0.00%    100.00% |           0      0.00%    100.00% |           0      0.00%    100.00% |           0      0.00%    100.00% |           0      0.00%    100.00% |           0      0.00%    100.00% |           0      0.00%    100.00% |           0      0.00%    100.00% |           0      0.00%    100.00% |           0      0.00%    100.00% |           0      0.00%    100.00% |           0      0.00%    100.00% |           0      0.00%    100.00% (Unspecified)
board.cache_hierarchy.ruby_system.L1Cache_Controller.I.L1_Replacement::total           57                       (Unspecified)
board.cache_hierarchy.ruby_system.L1Cache_Controller.S.Load |         463      8.43%      8.43% |          75      1.37%      9.80% |          84      1.53%     11.33% |          74      1.35%     12.67% |          71      1.29%     13.97% |          85      1.55%     15.51% |          77      1.40%     16.92% |          81      1.47%     18.39% |          88      1.60%     19.99% |          92      1.68%     21.67% |          86      1.57%     23.23% |          80      1.46%     24.69% |          85      1.55%     26.24% |         172      3.13%     29.37% |         932     16.97%     46.34% |        1500     27.31%     73.65% |        1447     26.35%    100.00% (Unspecified)
board.cache_hierarchy.ruby_system.L1Cache_Controller.S.Load::total         5492                       (Unspecified)
board.cache_hierarchy.ruby_system.L1Cache_Controller.S.Ifetch |       20439      4.82%      4.82% |       25203      5.94%     10.76% |       25237      5.95%     16.71% |       25276      5.96%     22.67% |       25270      5.96%     28.63% |       25241      5.95%     34.58% |       25219      5.95%     40.52% |       25228      5.95%     46.47% |       25222      5.95%     52.41% |       25227      5.95%     58.36% |       25234      5.95%     64.31% |       25232      5.95%     70.26% |       25239      5.95%     76.21% |       25222      5.95%     82.16% |       25231      5.95%     88.10% |       25241      5.95%     94.05% |       25223      5.95%    100.00% (Unspecified)
board.cache_hierarchy.ruby_system.L1Cache_Controller.S.Ifetch::total       424184                       (Unspecified)
board.cache_hierarchy.ruby_system.L1Cache_Controller.S.Store |          34     14.53%     14.53% |          10      4.27%     18.80% |          10      4.27%     23.08% |          10      4.27%     27.35% |          11      4.70%     32.05% |          11      4.70%     36.75% |          13      5.56%     42.31% |          14      5.98%     48.29% |          14      5.98%     54.27% |          12      5.13%     59.40% |          15      6.41%     65.81% |          15      6.41%     72.22% |          13      5.56%     77.78% |          13      5.56%     83.33% |          13      5.56%     88.89% |          13      5.56%     94.44% |          13      5.56%    100.00% (Unspecified)
board.cache_hierarchy.ruby_system.L1Cache_Controller.S.Store::total          234                       (Unspecified)
board.cache_hierarchy.ruby_system.L1Cache_Controller.S.Inv |          77     28.62%     28.62% |          13      4.83%     33.46% |           4      1.49%     34.94% |          15      5.58%     40.52% |          13      4.83%     45.35% |          12      4.46%     49.81% |          12      4.46%     54.28% |          13      4.83%     59.11% |          12      4.46%     63.57% |          14      5.20%     68.77% |          14      5.20%     73.98% |          14      5.20%     79.18% |          15      5.58%     84.76% |          15      5.58%     90.33% |          14      5.20%     95.54% |           9      3.35%     98.88% |           3      1.12%    100.00% (Unspecified)
board.cache_hierarchy.ruby_system.L1Cache_Controller.S.Inv::total          269                       (Unspecified)
board.cache_hierarchy.ruby_system.L1Cache_Controller.S.L1_Replacement |         440     99.10%     99.10% |           0      0.00%     99.10% |           0      0.00%     99.10% |           0      0.00%     99.10% |           0      0.00%     99.10% |           2      0.45%     99.55% |           0      0.00%     99.55% |           0      0.00%     99.55% |           0      0.00%     99.55% |           2      0.45%    100.00% |           0      0.00%    100.00% |           0      0.00%    100.00% |           0      0.00%    100.00% |           0      0.00%    100.00% |           0      0.00%    100.00% |           0      0.00%    100.00% |           0      0.00%    100.00% (Unspecified)
board.cache_hierarchy.ruby_system.L1Cache_Controller.S.L1_Replacement::total          444                       (Unspecified)
board.cache_hierarchy.ruby_system.L1Cache_Controller.E.Load |        1362      4.81%      4.81% |        1916      6.77%     11.58% |        1916      6.77%     18.35% |        1916      6.77%     25.12% |        1916      6.77%     31.90% |        1916      6.77%     38.67% |        1920      6.78%     45.45% |        1916      6.77%     52.22% |        1916      6.77%     58.99% |        1916      6.77%     65.76% |        1916      6.77%     72.53% |        1916      6.77%     79.30% |        1916      6.77%     86.07% |        1826      6.45%     92.53% |        1065      3.76%     96.29% |         495      1.75%     98.04% |         555      1.96%    100.00% (Unspecified)
board.cache_hierarchy.ruby_system.L1Cache_Controller.E.Load::total        28299                       (Unspecified)
board.cache_hierarchy.ruby_system.L1Cache_Controller.E.Store |          16     84.21%     84.21% |           0      0.00%     84.21% |           0      0.00%     84.21% |           0      0.00%     84.21% |           0      0.00%     84.21% |           0      0.00%     84.21% |           0      0.00%     84.21% |           0      0.00%     84.21% |           0      0.00%     84.21% |           0      0.00%     84.21% |           0      0.00%     84.21% |           0      0.00%     84.21% |           0      0.00%     84.21% |           0      0.00%     84.21% |           1      5.26%     89.47% |           1      5.26%     94.74% |           1      5.26%    100.00% (Unspecified)
board.cache_hierarchy.ruby_system.L1Cache_Controller.E.Store::total           19                       (Unspecified)
board.cache_hierarchy.ruby_system.L1Cache_Controller.E.L1_Replacement |          12    100.00%    100.00% |           0      0.00%    100.00% |           0      0.00%    100.00% |           0      0.00%    100.00% |           0      0.00%    100.00% |           0      0.00%    100.00% |           0      0.00%    100.00% |           0      0.00%    100.00% |           0      0.00%    100.00% |           0      0.00%    100.00% |           0      0.00%    100.00% |           0      0.00%    100.00% |           0      0.00%    100.00% |           0      0.00%    100.00% |           0      0.00%    100.00% |           0      0.00%    100.00% |           0      0.00%    100.00% (Unspecified)
board.cache_hierarchy.ruby_system.L1Cache_Controller.E.L1_Replacement::total           12                       (Unspecified)
board.cache_hierarchy.ruby_system.L1Cache_Controller.E.Fwd_GETS |           6     13.95%     13.95% |           9     20.93%     34.88% |           2      4.65%     39.53% |           2      4.65%     44.19% |           2      4.65%     48.84% |           2      4.65%     53.49% |           3      6.98%     60.47% |           2      4.65%     65.12% |           2      4.65%     69.77% |           2      4.65%     74.42% |           2      4.65%     79.07% |           2      4.65%     83.72% |           2      4.65%     88.37% |           2      4.65%     93.02% |           1      2.33%     95.35% |           1      2.33%     97.67% |           1      2.33%    100.00% (Unspecified)
board.cache_hierarchy.ruby_system.L1Cache_Controller.E.Fwd_GETS::total           43                       (Unspecified)
board.cache_hierarchy.ruby_system.L1Cache_Controller.M.Load |       11403      3.29%      3.29% |       20955      6.05%      9.34% |       20941      6.05%     15.39% |       20930      6.04%     21.43% |       20943      6.05%     27.48% |       20946      6.05%     33.53% |       20921      6.04%     39.57% |       20930      6.04%     45.61% |       20929      6.04%     51.65% |       20928      6.04%     57.69% |       20926      6.04%     63.74% |       20929      6.04%     69.78% |       20937      6.04%     75.82% |       20936      6.04%     81.87% |       20939      6.05%     87.91% |       20936      6.04%     93.96% |       20930      6.04%    100.00% (Unspecified)
board.cache_hierarchy.ruby_system.L1Cache_Controller.M.Load::total       346359                       (Unspecified)
board.cache_hierarchy.ruby_system.L1Cache_Controller.M.Store |       22415      7.67%      7.67% |       17069      5.84%     13.51% |       17062      5.84%     19.35% |       17062      5.84%     25.18% |       17061      5.84%     31.02% |       16802      5.75%     36.77% |       16801      5.75%     42.52% |       16801      5.75%     48.27% |       16800      5.75%     54.01% |       16801      5.75%     59.76% |       16800      5.75%     65.51% |       16800      5.75%     71.26% |       16801      5.75%     77.01% |       16801      5.75%     82.76% |       16800      5.75%     88.50% |       16801      5.75%     94.25% |       16801      5.75%    100.00% (Unspecified)
board.cache_hierarchy.ruby_system.L1Cache_Controller.M.Store::total       292278                       (Unspecified)
board.cache_hierarchy.ruby_system.L1Cache_Controller.M.L1_Replacement |         351    100.00%    100.00% |           0      0.00%    100.00% |           0      0.00%    100.00% |           0      0.00%    100.00% |           0      0.00%    100.00% |           0      0.00%    100.00% |           0      0.00%    100.00% |           0      0.00%    100.00% |           0      0.00%    100.00% |           0      0.00%    100.00% |           0      0.00%    100.00% |           0      0.00%    100.00% |           0      0.00%    100.00% |           0      0.00%    100.00% |           0      0.00%    100.00% |           0      0.00%    100.00% |           0      0.00%    100.00% (Unspecified)
board.cache_hierarchy.ruby_system.L1Cache_Controller.M.L1_Replacement::total          351                       (Unspecified)
board.cache_hierarchy.ruby_system.L1Cache_Controller.M.Fwd_GETX |          43     19.91%     19.91% |          15      6.94%     26.85% |           5      2.31%     29.17% |          14      6.48%     35.65% |          15      6.94%     42.59% |           1      0.46%     43.06% |          14      6.48%     49.54% |          13      6.02%     55.56% |          13      6.02%     61.57% |          14      6.48%     68.06% |          14      6.48%     74.54% |          13      6.02%     80.56% |          13      6.02%     86.57% |          13      6.02%     92.59% |          13      6.02%     98.61% |           1      0.46%     99.07% |           2      0.93%    100.00% (Unspecified)
board.cache_hierarchy.ruby_system.L1Cache_Controller.M.Fwd_GETX::total          216                       (Unspecified)
board.cache_hierarchy.ruby_system.L1Cache_Controller.M.Fwd_GETS |         392     67.59%     67.59% |          13      2.24%     69.83% |           7      1.21%     71.03% |          14      2.41%     73.45% |          14      2.41%     75.86% |           8      1.38%     77.24% |          12      2.07%     79.31% |          13      2.24%     81.55% |          14      2.41%     83.97% |          12      2.07%     86.03% |          13      2.24%     88.28% |          14      2.41%     90.69% |          13      2.24%     92.93% |          13      2.24%     95.17% |          14      2.41%     97.59% |           9      1.55%     99.14% |           5      0.86%    100.00% (Unspecified)
board.cache_hierarchy.ruby_system.L1Cache_Controller.M.Fwd_GETS::total          580                       (Unspecified)
board.cache_hierarchy.ruby_system.L1Cache_Controller.IS.Data_Exclusive |          55      2.84%      2.84% |         140      7.24%     10.08% |         132      6.83%     16.91% |         132      6.83%     23.73% |         132      6.83%     30.56% |         132      6.83%     37.38% |         133      6.88%     44.26% |         133      6.88%     51.14% |         133      6.88%     58.01% |         132      6.83%     64.84% |         133      6.88%     71.72% |         133      6.88%     78.59% |         132      6.83%     85.42% |         126      6.51%     91.93% |          76      3.93%     95.86% |          38      1.96%     97.83% |          42      2.17%    100.00% (Unspecified)
board.cache_hierarchy.ruby_system.L1Cache_Controller.IS.Data_Exclusive::total         1934                       (Unspecified)
board.cache_hierarchy.ruby_system.L1Cache_Controller.IS.DataS_fromL1 |          65     10.43%     10.43% |          18      2.89%     13.32% |          20      3.21%     16.53% |          17      2.73%     19.26% |          15      2.41%     21.67% |          21      3.37%     25.04% |          20      3.21%     28.25% |          21      3.37%     31.62% |          19      3.05%     34.67% |          19      3.05%     37.72% |          21      3.37%     41.09% |          20      3.21%     44.30% |          20      3.21%     47.51% |          26      4.17%     51.69% |          76     12.20%     63.88% |         115     18.46%     82.34% |         110     17.66%    100.00% (Unspecified)
board.cache_hierarchy.ruby_system.L1Cache_Controller.IS.DataS_fromL1::total          623                       (Unspecified)
board.cache_hierarchy.ruby_system.L1Cache_Controller.IS.Data_all_Acks |         382     11.76%     11.76% |         186      5.72%     17.48% |         190      5.85%     23.33% |         200      6.16%     29.49% |         202      6.22%     35.70% |         179      5.51%     41.21% |         172      5.29%     46.51% |         174      5.36%     51.86% |         174      5.36%     57.22% |         179      5.51%     62.73% |         172      5.29%     68.02% |         173      5.32%     73.35% |         172      5.29%     78.64% |         174      5.36%     84.00% |         174      5.36%     89.35% |         174      5.36%     94.71% |         172      5.29%    100.00% (Unspecified)
board.cache_hierarchy.ruby_system.L1Cache_Controller.IS.Data_all_Acks::total         3249                       (Unspecified)
board.cache_hierarchy.ruby_system.L1Cache_Controller.IM.Data |           3     50.00%     50.00% |           0      0.00%     50.00% |           0      0.00%     50.00% |           1     16.67%     66.67% |           2     33.33%    100.00% |           0      0.00%    100.00% |           0      0.00%    100.00% |           0      0.00%    100.00% |           0      0.00%    100.00% |           0      0.00%    100.00% |           0      0.00%    100.00% |           0      0.00%    100.00% |           0      0.00%    100.00% |           0      0.00%    100.00% |           0      0.00%    100.00% |           0      0.00%    100.00% |           0      0.00%    100.00% (Unspecified)
board.cache_hierarchy.ruby_system.L1Cache_Controller.IM.Data::total            6                       (Unspecified)
board.cache_hierarchy.ruby_system.L1Cache_Controller.IM.Data_all_Acks |         397     40.59%     40.59% |          64      6.54%     47.14% |          62      6.34%     53.48% |          62      6.34%     59.82% |          60      6.13%     65.95% |          29      2.97%     68.92% |          28      2.86%     71.78% |          27      2.76%     74.54% |          28      2.86%     77.40% |          29      2.97%     80.37% |          27      2.76%     83.13% |          27      2.76%     85.89% |          28      2.86%     88.75% |          28      2.86%     91.62% |          28      2.86%     94.48% |          27      2.76%     97.24% |          27      2.76%    100.00% (Unspecified)
board.cache_hierarchy.ruby_system.L1Cache_Controller.IM.Data_all_Acks::total          978                       (Unspecified)
board.cache_hierarchy.ruby_system.L1Cache_Controller.SM.Inv |           0      0.00%      0.00% |           2     66.67%     66.67% |           0      0.00%     66.67% |           1     33.33%    100.00% |           0      0.00%    100.00% |           0      0.00%    100.00% |           0      0.00%    100.00% |           0      0.00%    100.00% |           0      0.00%    100.00% |           0      0.00%    100.00% |           0      0.00%    100.00% |           0      0.00%    100.00% |           0      0.00%    100.00% |           0      0.00%    100.00% |           0      0.00%    100.00% |           0      0.00%    100.00% |           0      0.00%    100.00% (Unspecified)
board.cache_hierarchy.ruby_system.L1Cache_Controller.SM.Inv::total            3                       (Unspecified)
board.cache_hierarchy.ruby_system.L1Cache_Controller.SM.Ack |          43     15.58%     15.58% |           9      3.26%     18.84% |          14      5.07%     23.91% |          11      3.99%     27.90% |          16      5.80%     33.70% |          12      4.35%     38.04% |          16      5.80%     43.84% |          15      5.43%     49.28% |          16      5.80%     55.07% |          14      5.07%     60.14% |          17      6.16%     66.30% |          17      6.16%     72.46% |          15      5.43%     77.90% |          15      5.43%     83.33% |          15      5.43%     88.77% |          15      5.43%     94.20% |          16      5.80%    100.00% (Unspecified)
board.cache_hierarchy.ruby_system.L1Cache_Controller.SM.Ack::total          276                       (Unspecified)
board.cache_hierarchy.ruby_system.L1Cache_Controller.SM.Ack_all |          37     15.61%     15.61% |           8      3.38%     18.99% |          10      4.22%     23.21% |          10      4.22%     27.43% |          13      5.49%     32.91% |          11      4.64%     37.55% |          13      5.49%     43.04% |          14      5.91%     48.95% |          14      5.91%     54.85% |          12      5.06%     59.92% |          15      6.33%     66.24% |          15      6.33%     72.57% |          13      5.49%     78.06% |          13      5.49%     83.54% |          13      5.49%     89.03% |          13      5.49%     94.51% |          13      5.49%    100.00% (Unspecified)
board.cache_hierarchy.ruby_system.L1Cache_Controller.SM.Ack_all::total          237                       (Unspecified)
board.cache_hierarchy.ruby_system.L1Cache_Controller.M_I.WB_Ack |         363    100.00%    100.00% |           0      0.00%    100.00% |           0      0.00%    100.00% |           0      0.00%    100.00% |           0      0.00%    100.00% |           0      0.00%    100.00% |           0      0.00%    100.00% |           0      0.00%    100.00% |           0      0.00%    100.00% |           0      0.00%    100.00% |           0      0.00%    100.00% |           0      0.00%    100.00% |           0      0.00%    100.00% |           0      0.00%    100.00% |           0      0.00%    100.00% |           0      0.00%    100.00% |           0      0.00%    100.00% (Unspecified)
board.cache_hierarchy.ruby_system.L1Cache_Controller.M_I.WB_Ack::total          363                       (Unspecified)
board.cache_hierarchy.ruby_system.L2Cache_Controller.L1_GET_INSTR |         135      4.49%      4.49% |         186      6.19%     10.69% |         234      7.79%     18.48% |         261      8.69%     27.16% |         231      7.69%     34.85% |         180      5.99%     40.85% |         203      6.76%     47.60% |         151      5.03%     52.63% |         200      6.66%     59.29% |         201      6.69%     65.98% |         190      6.32%     72.30% |         194      6.46%     78.76% |         200      6.66%     85.42% |         176      5.86%     91.28% |         153      5.09%     96.37% |         109      3.63%    100.00% (Unspecified)
board.cache_hierarchy.ruby_system.L2Cache_Controller.L1_GET_INSTR::total         3004                       (Unspecified)
board.cache_hierarchy.ruby_system.L2Cache_Controller.L1_GETS |         148      5.27%      5.27% |         213      7.58%     12.85% |         196      6.98%     19.83% |         202      7.19%     27.02% |         182      6.48%     33.50% |         184      6.55%     40.05% |         172      6.12%     46.17% |         140      4.98%     51.16% |         136      4.84%     56.00% |         188      6.69%     62.69% |         226      8.05%     70.74% |         134      4.77%     75.51% |         165      5.87%     81.38% |         155      5.52%     86.90% |         187      6.66%     93.56% |         181      6.44%    100.00% (Unspecified)
board.cache_hierarchy.ruby_system.L2Cache_Controller.L1_GETS::total         2809                       (Unspecified)
board.cache_hierarchy.ruby_system.L2Cache_Controller.L1_GETX |          48      4.87%      4.87% |          53      5.38%     10.24% |          53      5.38%     15.62% |          54      5.48%     21.10% |          98      9.94%     31.03% |          98      9.94%     40.97% |          77      7.81%     48.78% |          81      8.22%     57.00% |          81      8.22%     65.21% |          48      4.87%     70.08% |          58      5.88%     75.96% |          33      3.35%     79.31% |          65      6.59%     85.90% |          64      6.49%     92.39% |          44      4.46%     96.86% |          31      3.14%    100.00% (Unspecified)
board.cache_hierarchy.ruby_system.L2Cache_Controller.L1_GETX::total          986                       (Unspecified)
board.cache_hierarchy.ruby_system.L2Cache_Controller.L1_UPGRADE |           1      0.42%      0.42% |          62     26.16%     26.58% |          29     12.24%     38.82% |          14      5.91%     44.73% |           8      3.38%     48.10% |          33     13.92%     62.03% |           4      1.69%     63.71% |           5      2.11%     65.82% |           2      0.84%     66.67% |           2      0.84%     67.51% |          42     17.72%     85.23% |           0      0.00%     85.23% |          14      5.91%     91.14% |           3      1.27%     92.41% |          17      7.17%     99.58% |           1      0.42%    100.00% (Unspecified)
board.cache_hierarchy.ruby_system.L2Cache_Controller.L1_UPGRADE::total          237                       (Unspecified)
board.cache_hierarchy.ruby_system.L2Cache_Controller.L1_PUTX |           9      2.48%      2.48% |          20      5.51%      7.99% |          15      4.13%     12.12% |          31      8.54%     20.66% |          47     12.95%     33.61% |          32      8.82%     42.42% |          30      8.26%     50.69% |          15      4.13%     54.82% |          15      4.13%     58.95% |          15      4.13%     63.09% |          31      8.54%     71.63% |          12      3.31%     74.93% |          29      7.99%     82.92% |          39     10.74%     93.66% |          15      4.13%     97.80% |           8      2.20%    100.00% (Unspecified)
board.cache_hierarchy.ruby_system.L2Cache_Controller.L1_PUTX::total          363                       (Unspecified)
board.cache_hierarchy.ruby_system.L2Cache_Controller.Mem_Data |          59      5.15%      5.15% |          75      6.55%     11.70% |          79      6.90%     18.60% |          80      6.99%     25.59% |          93      8.12%     33.71% |          95      8.30%     42.01% |          72      6.29%     48.30% |          68      5.94%     54.24% |          71      6.20%     60.44% |          76      6.64%     67.07% |          58      5.07%     72.14% |          42      3.67%     75.81% |          64      5.59%     81.40% |          77      6.72%     88.12% |          67      5.85%     93.97% |          69      6.03%    100.00% (Unspecified)
board.cache_hierarchy.ruby_system.L2Cache_Controller.Mem_Data::total         1145                       (Unspecified)
board.cache_hierarchy.ruby_system.L2Cache_Controller.WB_Data |          22      3.79%      3.79% |          94     16.21%     20.00% |          63     10.86%     30.86% |          32      5.52%     36.38% |          29      5.00%     41.38% |          58     10.00%     51.38% |          20      3.45%     54.83% |          21      3.62%     58.45% |          19      3.28%     61.72% |          39      6.72%     68.45% |          54      9.31%     77.76% |          19      3.28%     81.03% |          30      5.17%     86.21% |          19      3.28%     89.48% |          35      6.03%     95.52% |          26      4.48%    100.00% (Unspecified)
board.cache_hierarchy.ruby_system.L2Cache_Controller.WB_Data::total          580                       (Unspecified)
board.cache_hierarchy.ruby_system.L2Cache_Controller.WB_Data_clean |          12     27.91%     27.91% |           0      0.00%     27.91% |           1      2.33%     30.23% |          17     39.53%     69.77% |           1      2.33%     72.09% |           1      2.33%     74.42% |           1      2.33%     76.74% |           0      0.00%     76.74% |           0      0.00%     76.74% |           1      2.33%     79.07% |           2      4.65%     83.72% |           0      0.00%     83.72% |           1      2.33%     86.05% |           1      2.33%     88.37% |           3      6.98%     95.35% |           2      4.65%    100.00% (Unspecified)
board.cache_hierarchy.ruby_system.L2Cache_Controller.WB_Data_clean::total           43                       (Unspecified)
board.cache_hierarchy.ruby_system.L2Cache_Controller.Unblock |          34      5.46%      5.46% |          94     15.09%     20.55% |          64     10.27%     30.82% |          49      7.87%     38.68% |          30      4.82%     43.50% |          59      9.47%     52.97% |          21      3.37%     56.34% |          21      3.37%     59.71% |          19      3.05%     62.76% |          40      6.42%     69.18% |          56      8.99%     78.17% |          19      3.05%     81.22% |          31      4.98%     86.20% |          20      3.21%     89.41% |          38      6.10%     95.51% |          28      4.49%    100.00% (Unspecified)
board.cache_hierarchy.ruby_system.L2Cache_Controller.Unblock::total          623                       (Unspecified)
board.cache_hierarchy.ruby_system.L2Cache_Controller.Exclusive_Unblock |         159      5.05%      5.05% |         231      7.34%     12.38% |         197      6.26%     18.64% |         197      6.26%     24.90% |         242      7.68%     32.58% |         254      8.07%     40.65% |         203      6.45%     47.09% |         203      6.45%     53.54% |         200      6.35%     59.89% |         180      5.72%     65.61% |         213      6.76%     72.37% |         147      4.67%     77.04% |         198      6.29%     83.33% |         188      5.97%     89.30% |         180      5.72%     95.01% |         157      4.99%    100.00% (Unspecified)
board.cache_hierarchy.ruby_system.L2Cache_Controller.Exclusive_Unblock::total         3149                       (Unspecified)
board.cache_hierarchy.ruby_system.L2Cache_Controller.NP.L1_GET_INSTR |          25      6.56%      6.56% |          26      6.82%     13.39% |          28      7.35%     20.73% |          29      7.61%     28.35% |          26      6.82%     35.17% |          26      6.82%     41.99% |          19      4.99%     46.98% |          17      4.46%     51.44% |          20      5.25%     56.69% |          25      6.56%     63.25% |          23      6.04%     69.29% |          21      5.51%     74.80% |          27      7.09%     81.89% |          26      6.82%     88.71% |          21      5.51%     94.23% |          22      5.77%    100.00% (Unspecified)
board.cache_hierarchy.ruby_system.L2Cache_Controller.NP.L1_GET_INSTR::total          381                       (Unspecified)
board.cache_hierarchy.ruby_system.L2Cache_Controller.NP.L1_GETS |           0      0.00%      0.00% |           2      3.23%      3.23% |           0      0.00%      3.23% |           0      0.00%      3.23% |          16     25.81%     29.03% |           1      1.61%     30.65% |           2      3.23%     33.87% |           0      0.00%     33.87% |           0      0.00%     33.87% |          17     27.42%     61.29% |           1      1.61%     62.90% |           2      3.23%     66.13% |           1      1.61%     67.74% |           0      0.00%     67.74% |           3      4.84%     72.58% |          17     27.42%    100.00% (Unspecified)
board.cache_hierarchy.ruby_system.L2Cache_Controller.NP.L1_GETS::total           62                       (Unspecified)
board.cache_hierarchy.ruby_system.L2Cache_Controller.NP.L1_GETX |          34      4.84%      4.84% |          47      6.70%     11.54% |          51      7.26%     18.80% |          51      7.26%     26.07% |          51      7.26%     33.33% |          68      9.69%     43.02% |          51      7.26%     50.28% |          51      7.26%     57.55% |          51      7.26%     64.81% |          34      4.84%     69.66% |          34      4.84%     74.50% |          19      2.71%     77.21% |          36      5.13%     82.34% |          51      7.26%     89.60% |          43      6.13%     95.73% |          30      4.27%    100.00% (Unspecified)
board.cache_hierarchy.ruby_system.L2Cache_Controller.NP.L1_GETX::total          702                       (Unspecified)
board.cache_hierarchy.ruby_system.L2Cache_Controller.SS.L1_GET_INSTR |         109      4.21%      4.21% |         159      6.14%     10.35% |         202      7.80%     18.15% |         230      8.88%     27.03% |         202      7.80%     34.83% |         151      5.83%     40.66% |         181      6.99%     47.64% |         132      5.10%     52.74% |         180      6.95%     59.69% |         175      6.76%     66.45% |         166      6.41%     72.86% |         171      6.60%     79.46% |         170      6.56%     86.02% |         148      5.71%     91.74% |         130      5.02%     96.76% |          84      3.24%    100.00% (Unspecified)
board.cache_hierarchy.ruby_system.L2Cache_Controller.SS.L1_GET_INSTR::total         2590                       (Unspecified)
board.cache_hierarchy.ruby_system.L2Cache_Controller.SS.L1_GETS |           4      1.63%      1.63% |           2      0.82%      2.45% |          17      6.94%      9.39% |          24      9.80%     19.18% |          16      6.53%     25.71% |           1      0.41%     26.12% |          29     11.84%     37.96% |           2      0.82%     38.78% |           0      0.00%     38.78% |          18      7.35%     46.12% |          44     17.96%     64.08% |           1      0.41%     64.49% |          15      6.12%     70.61% |          14      5.71%     76.33% |          30     12.24%     88.57% |          28     11.43%    100.00% (Unspecified)
board.cache_hierarchy.ruby_system.L2Cache_Controller.SS.L1_GETS::total          245                       (Unspecified)
board.cache_hierarchy.ruby_system.L2Cache_Controller.SS.L1_GETX |           0      0.00%      0.00% |           0      0.00%      0.00% |           0      0.00%      0.00% |           0      0.00%      0.00% |           5     83.33%     83.33% |           0      0.00%     83.33% |           0      0.00%     83.33% |           0      0.00%     83.33% |           0      0.00%     83.33% |           0      0.00%     83.33% |           1     16.67%    100.00% |           0      0.00%    100.00% |           0      0.00%    100.00% |           0      0.00%    100.00% |           0      0.00%    100.00% |           0      0.00%    100.00% (Unspecified)
board.cache_hierarchy.ruby_system.L2Cache_Controller.SS.L1_GETX::total            6                       (Unspecified)
board.cache_hierarchy.ruby_system.L2Cache_Controller.SS.L1_UPGRADE |           1      0.43%      0.43% |          62     26.84%     27.27% |          29     12.55%     39.83% |          14      6.06%     45.89% |           8      3.46%     49.35% |          32     13.85%     63.20% |           4      1.73%     64.94% |           5      2.16%     67.10% |           2      0.87%     67.97% |           2      0.87%     68.83% |          37     16.02%     84.85% |           0      0.00%     84.85% |          14      6.06%     90.91% |           3      1.30%     92.21% |          17      7.36%     99.57% |           1      0.43%    100.00% (Unspecified)
board.cache_hierarchy.ruby_system.L2Cache_Controller.SS.L1_UPGRADE::total          231                       (Unspecified)
board.cache_hierarchy.ruby_system.L2Cache_Controller.M.L1_GETS |         110      5.88%      5.88% |         114      6.09%     11.97% |         115      6.14%     18.11% |         129      6.89%     25.00% |         120      6.41%     31.41% |         123      6.57%     37.98% |         120      6.41%     44.39% |         117      6.25%     50.64% |         117      6.25%     56.89% |         113      6.04%     62.93% |         119      6.36%     69.28% |         112      5.98%     75.27% |         118      6.30%     81.57% |         121      6.46%     88.03% |         116      6.20%     94.23% |         108      5.77%    100.00% (Unspecified)
board.cache_hierarchy.ruby_system.L2Cache_Controller.M.L1_GETS::total         1872                       (Unspecified)
board.cache_hierarchy.ruby_system.L2Cache_Controller.M.L1_GETX |           2      3.33%      3.33% |           2      3.33%      6.67% |           2      3.33%     10.00% |           3      5.00%     15.00% |          21     35.00%     50.00% |           1      1.67%     51.67% |           2      3.33%     55.00% |           2      3.33%     58.33% |           2      3.33%     61.67% |           2      3.33%     65.00% |           2      3.33%     68.33% |           2      3.33%     71.67% |          14     23.33%     95.00% |           1      1.67%     96.67% |           1      1.67%     98.33% |           1      1.67%    100.00% (Unspecified)
board.cache_hierarchy.ruby_system.L2Cache_Controller.M.L1_GETX::total           60                       (Unspecified)
board.cache_hierarchy.ruby_system.L2Cache_Controller.MT.L1_GETS |          34      5.46%      5.46% |          94     15.09%     20.55% |          64     10.27%     30.82% |          49      7.87%     38.68% |          30      4.82%     43.50% |          59      9.47%     52.97% |          21      3.37%     56.34% |          21      3.37%     59.71% |          19      3.05%     62.76% |          40      6.42%     69.18% |          56      8.99%     78.17% |          19      3.05%     81.22% |          31      4.98%     86.20% |          20      3.21%     89.41% |          38      6.10%     95.51% |          28      4.49%    100.00% (Unspecified)
board.cache_hierarchy.ruby_system.L2Cache_Controller.MT.L1_GETS::total          623                       (Unspecified)
board.cache_hierarchy.ruby_system.L2Cache_Controller.MT.L1_GETX |          12      5.56%      5.56% |           4      1.85%      7.41% |           0      0.00%      7.41% |           0      0.00%      7.41% |          21      9.72%     17.13% |          29     13.43%     30.56% |          24     11.11%     41.67% |          28     12.96%     54.63% |          28     12.96%     67.59% |          12      5.56%     73.15% |          19      8.80%     81.94% |          12      5.56%     87.50% |          15      6.94%     94.44% |          12      5.56%    100.00% |           0      0.00%    100.00% |           0      0.00%    100.00% (Unspecified)
board.cache_hierarchy.ruby_system.L2Cache_Controller.MT.L1_GETX::total          216                       (Unspecified)
board.cache_hierarchy.ruby_system.L2Cache_Controller.MT.L1_PUTX |           9      2.48%      2.48% |          20      5.51%      7.99% |          15      4.13%     12.12% |          31      8.54%     20.66% |          47     12.95%     33.61% |          32      8.82%     42.42% |          30      8.26%     50.69% |          15      4.13%     54.82% |          15      4.13%     58.95% |          15      4.13%     63.09% |          31      8.54%     71.63% |          12      3.31%     74.93% |          29      7.99%     82.92% |          39     10.74%     93.66% |          15      4.13%     97.80% |           8      2.20%    100.00% (Unspecified)
board.cache_hierarchy.ruby_system.L2Cache_Controller.MT.L1_PUTX::total          363                       (Unspecified)
board.cache_hierarchy.ruby_system.L2Cache_Controller.ISS.Mem_Data |           0      0.00%      0.00% |           2      3.23%      3.23% |           0      0.00%      3.23% |           0      0.00%      3.23% |          16     25.81%     29.03% |           1      1.61%     30.65% |           2      3.23%     33.87% |           0      0.00%     33.87% |           0      0.00%     33.87% |          17     27.42%     61.29% |           1      1.61%     62.90% |           2      3.23%     66.13% |           1      1.61%     67.74% |           0      0.00%     67.74% |           3      4.84%     72.58% |          17     27.42%    100.00% (Unspecified)
board.cache_hierarchy.ruby_system.L2Cache_Controller.ISS.Mem_Data::total           62                       (Unspecified)
board.cache_hierarchy.ruby_system.L2Cache_Controller.IS.L1_GET_INSTR |           1      3.03%      3.03% |           1      3.03%      6.06% |           4     12.12%     18.18% |           2      6.06%     24.24% |           3      9.09%     33.33% |           3      9.09%     42.42% |           3      9.09%     51.52% |           2      6.06%     57.58% |           0      0.00%     57.58% |           1      3.03%     60.61% |           1      3.03%     63.64% |           2      6.06%     69.70% |           3      9.09%     78.79% |           2      6.06%     84.85% |           2      6.06%     90.91% |           3      9.09%    100.00% (Unspecified)
board.cache_hierarchy.ruby_system.L2Cache_Controller.IS.L1_GET_INSTR::total           33                       (Unspecified)
board.cache_hierarchy.ruby_system.L2Cache_Controller.IS.Mem_Data |          25      6.56%      6.56% |          26      6.82%     13.39% |          28      7.35%     20.73% |          29      7.61%     28.35% |          26      6.82%     35.17% |          26      6.82%     41.99% |          19      4.99%     46.98% |          17      4.46%     51.44% |          20      5.25%     56.69% |          25      6.56%     63.25% |          23      6.04%     69.29% |          21      5.51%     74.80% |          27      7.09%     81.89% |          26      6.82%     88.71% |          21      5.51%     94.23% |          22      5.77%    100.00% (Unspecified)
board.cache_hierarchy.ruby_system.L2Cache_Controller.IS.Mem_Data::total          381                       (Unspecified)
board.cache_hierarchy.ruby_system.L2Cache_Controller.IM.Mem_Data |          34      4.84%      4.84% |          47      6.70%     11.54% |          51      7.26%     18.80% |          51      7.26%     26.07% |          51      7.26%     33.33% |          68      9.69%     43.02% |          51      7.26%     50.28% |          51      7.26%     57.55% |          51      7.26%     64.81% |          34      4.84%     69.66% |          34      4.84%     74.50% |          19      2.71%     77.21% |          36      5.13%     82.34% |          51      7.26%     89.60% |          43      6.13%     95.73% |          30      4.27%    100.00% (Unspecified)
board.cache_hierarchy.ruby_system.L2Cache_Controller.IM.Mem_Data::total          702                       (Unspecified)
board.cache_hierarchy.ruby_system.L2Cache_Controller.SS_MB.L1_GETS |           0      0.00%      0.00% |           0      0.00%      0.00% |           0      0.00%      0.00% |           0      0.00%      0.00% |           0      0.00%      0.00% |           0      0.00%      0.00% |           0      0.00%      0.00% |           0      0.00%      0.00% |           0      0.00%      0.00% |           0      0.00%      0.00% |           3    100.00%    100.00% |           0      0.00%    100.00% |           0      0.00%    100.00% |           0      0.00%    100.00% |           0      0.00%    100.00% |           0      0.00%    100.00% (Unspecified)
board.cache_hierarchy.ruby_system.L2Cache_Controller.SS_MB.L1_GETS::total            3                       (Unspecified)
board.cache_hierarchy.ruby_system.L2Cache_Controller.SS_MB.L1_GETX |           0      0.00%      0.00% |           0      0.00%      0.00% |           0      0.00%      0.00% |           0      0.00%      0.00% |           0      0.00%      0.00% |           0      0.00%      0.00% |           0      0.00%      0.00% |           0      0.00%      0.00% |           0      0.00%      0.00% |           0      0.00%      0.00% |           1    100.00%    100.00% |           0      0.00%    100.00% |           0      0.00%    100.00% |           0      0.00%    100.00% |           0      0.00%    100.00% |           0      0.00%    100.00% (Unspecified)
board.cache_hierarchy.ruby_system.L2Cache_Controller.SS_MB.L1_GETX::total            1                       (Unspecified)
board.cache_hierarchy.ruby_system.L2Cache_Controller.SS_MB.L1_UPGRADE |           0      0.00%      0.00% |           0      0.00%      0.00% |           0      0.00%      0.00% |           0      0.00%      0.00% |           0      0.00%      0.00% |           1     33.33%     33.33% |           0      0.00%     33.33% |           0      0.00%     33.33% |           0      0.00%     33.33% |           0      0.00%     33.33% |           2     66.67%    100.00% |           0      0.00%    100.00% |           0      0.00%    100.00% |           0      0.00%    100.00% |           0      0.00%    100.00% |           0      0.00%    100.00% (Unspecified)
board.cache_hierarchy.ruby_system.L2Cache_Controller.SS_MB.L1_UPGRADE::total            3                       (Unspecified)
board.cache_hierarchy.ruby_system.L2Cache_Controller.SS_MB.Exclusive_Unblock |           1      0.42%      0.42% |          62     26.16%     26.58% |          29     12.24%     38.82% |          14      5.91%     44.73% |          13      5.49%     50.21% |          32     13.50%     63.71% |           4      1.69%     65.40% |           5      2.11%     67.51% |           2      0.84%     68.35% |           2      0.84%     69.20% |          38     16.03%     85.23% |           0      0.00%     85.23% |          14      5.91%     91.14% |           3      1.27%     92.41% |          17      7.17%     99.58% |           1      0.42%    100.00% (Unspecified)
board.cache_hierarchy.ruby_system.L2Cache_Controller.SS_MB.Exclusive_Unblock::total          237                       (Unspecified)
board.cache_hierarchy.ruby_system.L2Cache_Controller.MT_MB.L1_GETS |           0      0.00%      0.00% |           0      0.00%      0.00% |           0      0.00%      0.00% |           0      0.00%      0.00% |           0      0.00%      0.00% |           0      0.00%      0.00% |           0      0.00%      0.00% |           0      0.00%      0.00% |           0      0.00%      0.00% |           0      0.00%      0.00% |           2    100.00%    100.00% |           0      0.00%    100.00% |           0      0.00%    100.00% |           0      0.00%    100.00% |           0      0.00%    100.00% |           0      0.00%    100.00% (Unspecified)
board.cache_hierarchy.ruby_system.L2Cache_Controller.MT_MB.L1_GETS::total            2                       (Unspecified)
board.cache_hierarchy.ruby_system.L2Cache_Controller.MT_MB.L1_GETX |           0      0.00%      0.00% |           0      0.00%      0.00% |           0      0.00%      0.00% |           0      0.00%      0.00% |           0      0.00%      0.00% |           0      0.00%      0.00% |           0      0.00%      0.00% |           0      0.00%      0.00% |           0      0.00%      0.00% |           0      0.00%      0.00% |           1    100.00%    100.00% |           0      0.00%    100.00% |           0      0.00%    100.00% |           0      0.00%    100.00% |           0      0.00%    100.00% |           0      0.00%    100.00% (Unspecified)
board.cache_hierarchy.ruby_system.L2Cache_Controller.MT_MB.L1_GETX::total            1                       (Unspecified)
board.cache_hierarchy.ruby_system.L2Cache_Controller.MT_MB.Exclusive_Unblock |         158      5.43%      5.43% |         169      5.80%     11.23% |         168      5.77%     17.00% |         183      6.28%     23.28% |         229      7.86%     31.15% |         222      7.62%     38.77% |         199      6.83%     45.60% |         198      6.80%     52.40% |         198      6.80%     59.20% |         178      6.11%     65.32% |         175      6.01%     71.33% |         147      5.05%     76.37% |         184      6.32%     82.69% |         185      6.35%     89.05% |         163      5.60%     94.64% |         156      5.36%    100.00% (Unspecified)
board.cache_hierarchy.ruby_system.L2Cache_Controller.MT_MB.Exclusive_Unblock::total         2912                       (Unspecified)
board.cache_hierarchy.ruby_system.L2Cache_Controller.MT_IIB.L1_GETS |           0      0.00%      0.00% |           1     50.00%     50.00% |           0      0.00%     50.00% |           0      0.00%     50.00% |           0      0.00%     50.00% |           0      0.00%     50.00% |           0      0.00%     50.00% |           0      0.00%     50.00% |           0      0.00%     50.00% |           0      0.00%     50.00% |           1     50.00%    100.00% |           0      0.00%    100.00% |           0      0.00%    100.00% |           0      0.00%    100.00% |           0      0.00%    100.00% |           0      0.00%    100.00% (Unspecified)
board.cache_hierarchy.ruby_system.L2Cache_Controller.MT_IIB.L1_GETS::total            2                       (Unspecified)
board.cache_hierarchy.ruby_system.L2Cache_Controller.MT_IIB.WB_Data |          22      4.01%      4.01% |          68     12.39%     16.39% |          63     11.48%     27.87% |          32      5.83%     33.70% |          29      5.28%     38.98% |          58     10.56%     49.54% |          20      3.64%     53.19% |          20      3.64%     56.83% |          19      3.46%     60.29% |          39      7.10%     67.40% |          51      9.29%     76.68% |          19      3.46%     80.15% |          30      5.46%     85.61% |          19      3.46%     89.07% |          35      6.38%     95.45% |          25      4.55%    100.00% (Unspecified)
board.cache_hierarchy.ruby_system.L2Cache_Controller.MT_IIB.WB_Data::total          549                       (Unspecified)
board.cache_hierarchy.ruby_system.L2Cache_Controller.MT_IIB.WB_Data_clean |          12     44.44%     44.44% |           0      0.00%     44.44% |           1      3.70%     48.15% |           2      7.41%     55.56% |           1      3.70%     59.26% |           1      3.70%     62.96% |           1      3.70%     66.67% |           0      0.00%     66.67% |           0      0.00%     66.67% |           1      3.70%     70.37% |           2      7.41%     77.78% |           0      0.00%     77.78% |           1      3.70%     81.48% |           1      3.70%     85.19% |           2      7.41%     92.59% |           2      7.41%    100.00% (Unspecified)
board.cache_hierarchy.ruby_system.L2Cache_Controller.MT_IIB.WB_Data_clean::total           27                       (Unspecified)
board.cache_hierarchy.ruby_system.L2Cache_Controller.MT_IIB.Unblock |           0      0.00%      0.00% |          26     55.32%     55.32% |           0      0.00%     55.32% |          15     31.91%     87.23% |           0      0.00%     87.23% |           0      0.00%     87.23% |           0      0.00%     87.23% |           1      2.13%     89.36% |           0      0.00%     89.36% |           0      0.00%     89.36% |           3      6.38%     95.74% |           0      0.00%     95.74% |           0      0.00%     95.74% |           0      0.00%     95.74% |           1      2.13%     97.87% |           1      2.13%    100.00% (Unspecified)
board.cache_hierarchy.ruby_system.L2Cache_Controller.MT_IIB.Unblock::total           47                       (Unspecified)
board.cache_hierarchy.ruby_system.L2Cache_Controller.MT_IB.WB_Data |           0      0.00%      0.00% |          26     83.87%     83.87% |           0      0.00%     83.87% |           0      0.00%     83.87% |           0      0.00%     83.87% |           0      0.00%     83.87% |           0      0.00%     83.87% |           1      3.23%     87.10% |           0      0.00%     87.10% |           0      0.00%     87.10% |           3      9.68%     96.77% |           0      0.00%     96.77% |           0      0.00%     96.77% |           0      0.00%     96.77% |           0      0.00%     96.77% |           1      3.23%    100.00% (Unspecified)
board.cache_hierarchy.ruby_system.L2Cache_Controller.MT_IB.WB_Data::total           31                       (Unspecified)
board.cache_hierarchy.ruby_system.L2Cache_Controller.MT_IB.WB_Data_clean |           0      0.00%      0.00% |           0      0.00%      0.00% |           0      0.00%      0.00% |          15     93.75%     93.75% |           0      0.00%     93.75% |           0      0.00%     93.75% |           0      0.00%     93.75% |           0      0.00%     93.75% |           0      0.00%     93.75% |           0      0.00%     93.75% |           0      0.00%     93.75% |           0      0.00%     93.75% |           0      0.00%     93.75% |           0      0.00%     93.75% |           1      6.25%    100.00% |           0      0.00%    100.00% (Unspecified)
board.cache_hierarchy.ruby_system.L2Cache_Controller.MT_IB.WB_Data_clean::total           16                       (Unspecified)
board.cache_hierarchy.ruby_system.L2Cache_Controller.MT_SB.L1_UPGRADE |           0      0.00%      0.00% |           0      0.00%      0.00% |           0      0.00%      0.00% |           0      0.00%      0.00% |           0      0.00%      0.00% |           0      0.00%      0.00% |           0      0.00%      0.00% |           0      0.00%      0.00% |           0      0.00%      0.00% |           0      0.00%      0.00% |           3    100.00%    100.00% |           0      0.00%    100.00% |           0      0.00%    100.00% |           0      0.00%    100.00% |           0      0.00%    100.00% |           0      0.00%    100.00% (Unspecified)
board.cache_hierarchy.ruby_system.L2Cache_Controller.MT_SB.L1_UPGRADE::total            3                       (Unspecified)
board.cache_hierarchy.ruby_system.L2Cache_Controller.MT_SB.Unblock |          34      5.90%      5.90% |          68     11.81%     17.71% |          64     11.11%     28.82% |          34      5.90%     34.72% |          30      5.21%     39.93% |          59     10.24%     50.17% |          21      3.65%     53.82% |          20      3.47%     57.29% |          19      3.30%     60.59% |          40      6.94%     67.53% |          53      9.20%     76.74% |          19      3.30%     80.03% |          31      5.38%     85.42% |          20      3.47%     88.89% |          37      6.42%     95.31% |          27      4.69%    100.00% (Unspecified)
board.cache_hierarchy.ruby_system.L2Cache_Controller.MT_SB.Unblock::total          576                       (Unspecified)
board.cache_hierarchy.ruby_system.RequestType.LD.latency_hist_seqr::bucket_size           64                       (Unspecified)
board.cache_hierarchy.ruby_system.RequestType.LD.latency_hist_seqr::max_bucket          639                       (Unspecified)
board.cache_hierarchy.ruby_system.RequestType.LD.latency_hist_seqr::samples       382952                       (Unspecified)
board.cache_hierarchy.ruby_system.RequestType.LD.latency_hist_seqr::mean     1.855191                       (Unspecified)
board.cache_hierarchy.ruby_system.RequestType.LD.latency_hist_seqr::gmean     1.034886                       (Unspecified)
board.cache_hierarchy.ruby_system.RequestType.LD.latency_hist_seqr::stdev    10.537956                       (Unspecified)
[...]
board.processor.cores9.core.decode.branchResolved        10660                       # Number of times decode resolved a branch (Count)
board.processor.cores9.core.decode.branchMispred          114                       # Number of times decode detected a branch misprediction (Count)
board.processor.cores9.core.decode.decodedInsts       321745                       # Number of instructions handled by decode (Count)
board.processor.cores9.core.decode.squashedInsts          592                       # Number of squashed instructions handled by decode (Count)
board.processor.cores9.core.executeStats0.numInsts       221252                       # Number of executed instructions (Count)
board.processor.cores9.core.executeStats0.numNop            0                       # Number of nop insts executed (Count)
board.processor.cores9.core.executeStats0.numBranches        12953                       # Number of branches executed (Count)
board.processor.cores9.core.executeStats0.numLoadInsts        56108                       # Number of load instructions executed (Count)
board.processor.cores9.core.executeStats0.numStoreInsts        16928                       # Number of stores executed (Count)
board.processor.cores9.core.executeStats0.instRate     1.182426                       # Inst execution rate ((Count/Cycle))
board.processor.cores9.core.executeStats0.numCCRegReads        35143                       # Number of times the CC registers were read (Count)
board.processor.cores9.core.executeStats0.numCCRegWrites        54609                       # Number of times the CC registers were written (Count)
board.processor.cores9.core.executeStats0.numFpRegReads           14                       # Number of times the floating registers were read (Count)
board.processor.cores9.core.executeStats0.numFpRegWrites            8                       # Number of times the floating registers were written (Count)
board.processor.cores9.core.executeStats0.numIntRegReads       281256                       # Number of times the integer registers were read (Count)
board.processor.cores9.core.executeStats0.numIntRegWrites       178376                       # Number of times the integer registers were written (Count)
board.processor.cores9.core.executeStats0.numMemRefs        73036                       # Number of memory refs (Count)
board.processor.cores9.core.executeStats0.numMiscRegReads       100989                       # Number of times the Misc registers were read (Count)
board.processor.cores9.core.executeStats0.numMiscRegWrites            1                       # Number of times the Misc registers were written (Count)
board.processor.cores9.core.executeStats0.numVecAluAccesses            0                       # Number of vector alu accesses (Count)
board.processor.cores9.core.executeStats0.numDiscardedOps            0                       # Number of ops (including micro ops) which were discarded before commit (Count)
board.processor.cores9.core.fetch.predictedBranches        16941                       # Number of branches that fetch has predicted taken (Count)
board.processor.cores9.core.fetch.cycles       143029                       # Number of cycles fetch has run and was not squashing or blocked (Cycle)
board.processor.cores9.core.fetch.squashCycles         4716                       # Number of cycles fetch has spent squashing (Cycle)
board.processor.cores9.core.fetch.miscStallCycles           91                       # Number of cycles fetch has spent waiting on interrupts, or bad addresses, or out of MSHRs (Cycle)
board.processor.cores9.core.fetch.pendingTrapStallCycles          556                       # Number of stall cycles due to pending traps (Cycle)
board.processor.cores9.core.fetch.cacheLines        25409                       # Number of cache lines fetched (Count)
board.processor.cores9.core.fetch.icacheSquashes           84                       # Number of outstanding Icache misses that were squashed (Count)
board.processor.cores9.core.fetch.nisnDist::samples       179465                       # Number of instructions fetched each cycle (Total) (Count)
board.processor.cores9.core.fetch.nisnDist::mean     2.167180                       # Number of instructions fetched each cycle (Total) (Count)
board.processor.cores9.core.fetch.nisnDist::stdev     3.255855                       # Number of instructions fetched each cycle (Total) (Count)
board.processor.cores9.core.fetch.nisnDist::underflows            0      0.00%      0.00% # Number of instructions fetched each cycle (Total) (Count)
board.processor.cores9.core.fetch.nisnDist::0       116502     64.92%     64.92% # Number of instructions fetched each cycle (Total) (Count)
board.processor.cores9.core.fetch.nisnDist::1         2113      1.18%     66.09% # Number of instructions fetched each cycle (Total) (Count)
board.processor.cores9.core.fetch.nisnDist::2         4123      2.30%     68.39% # Number of instructions fetched each cycle (Total) (Count)
board.processor.cores9.core.fetch.nisnDist::3         8275      4.61%     73.00% # Number of instructions fetched each cycle (Total) (Count)
board.processor.cores9.core.fetch.nisnDist::4           70      0.04%     73.04% # Number of instructions fetched each cycle (Total) (Count)
board.processor.cores9.core.fetch.nisnDist::5         8341      4.65%     77.69% # Number of instructions fetched each cycle (Total) (Count)
board.processor.cores9.core.fetch.nisnDist::6         4212      2.35%     80.04% # Number of instructions fetched each cycle (Total) (Count)
board.processor.cores9.core.fetch.nisnDist::7          140      0.08%     80.11% # Number of instructions fetched each cycle (Total) (Count)
board.processor.cores9.core.fetch.nisnDist::8        35689     19.89%    100.00% # Number of instructions fetched each cycle (Total) (Count)
board.processor.cores9.core.fetch.nisnDist::overflows            0      0.00%    100.00% # Number of instructions fetched each cycle (Total) (Count)
board.processor.cores9.core.fetch.nisnDist::min_value            0                       # Number of instructions fetched each cycle (Total) (Count)
board.processor.cores9.core.fetch.nisnDist::max_value            8                       # Number of instructions fetched each cycle (Total) (Count)
board.processor.cores9.core.fetch.nisnDist::total       179465                       # Number of instructions fetched each cycle (Total) (Count)
board.processor.cores9.core.fetchStats0.numInsts       234128                       # Number of instructions fetched (thread level) (Count)
board.processor.cores9.core.fetchStats0.numOps            0                       # Number of ops (including micro ops) fetched (thread level) (Count)
board.processor.cores9.core.fetchStats0.fetchRate     1.251239                       # Number of inst fetches per cycle ((Count/Cycle))
board.processor.cores9.core.fetchStats0.numBranches        23682                       # Number of branches fetched (Count)
board.processor.cores9.core.fetchStats0.branchRate     0.126563                       # Number of branch fetches per cycle (Ratio)
board.processor.cores9.core.fetchStats0.icacheStallCycles        33431                       # ICache total stall cycles (Cycle)
board.processor.cores9.core.fetchStats0.numFetchSuspends            0                       # Number of times Execute suspended instruction fetching (Count)
board.processor.cores9.core.iew.idleCycles            0                       # Number of cycles IEW is idle (Cycle)
board.processor.cores9.core.iew.squashCycles         2246                       # Number of cycles IEW is squashing (Cycle)
board.processor.cores9.core.iew.blockCycles        60533                       # Number of cycles IEW is blocking (Cycle)
board.processor.cores9.core.iew.unblockCycles         4788                       # Number of cycles IEW is unblocking (Cycle)
board.processor.cores9.core.iew.dispatchedInsts       304708                       # Number of instructions dispatched to IQ (Count)
board.processor.cores9.core.iew.dispSquashedInsts            2                       # Number of squashed instructions skipped by dispatch (Count)
board.processor.cores9.core.iew.dispLoadInsts        76903                       # Number of dispatched load instructions (Count)
board.processor.cores9.core.iew.dispStoreInsts        25209                       # Number of dispatched store instructions (Count)
board.processor.cores9.core.iew.dispNonSpecInsts         4121                       # Number of dispatched non-speculative instructions (Count)
board.processor.cores9.core.iew.iqFullEvents          549                       # Number of times the IQ has become full, causing a stall (Count)
board.processor.cores9.core.iew.lsqFullEvents          145                       # Number of times the LSQ has become full, causing a stall (Count)
board.processor.cores9.core.iew.memOrderViolationEvents         2056                       # Number of memory order violations (Count)
board.processor.cores9.core.iew.predictedTakenIncorrect            7                       # Number of branches that were predicted taken incorrectly (Count)
board.processor.cores9.core.iew.predictedNotTakenIncorrect          190                       # Number of branches that were predicted not taken incorrectly (Count)
board.processor.cores9.core.iew.branchMispredicts          197                       # Number of branch mispredicts detected at execute (Count)
board.processor.cores9.core.iew.instsToCommit       221219                       # Cumulative count of insts sent to commit (Count)
board.processor.cores9.core.iew.writebackCount       221021                       # Cumulative count of insts written-back (Count)
board.processor.cores9.core.iew.producerInst       165764                       # Number of instructions producing a value (Count)
board.processor.cores9.core.iew.consumerInst       266433                       # Number of instructions consuming a value (Count)
board.processor.cores9.core.iew.wbRate       1.181191                       # Insts written-back per cycle ((Count/Cycle))
board.processor.cores9.core.iew.wbFanout     0.622160                       # Average fanout of values written-back ((Count/Count))
board.processor.cores9.core.interrupts.clk_domain.clock         5328                       # Clock period in ticks (Tick)
board.processor.cores9.core.lsq0.forwLoads         4259                       # Number of loads that had data forwarded from stores (Count)
board.processor.cores9.core.lsq0.squashedLoads        43564                       # Number of loads squashed (Count)
board.processor.cores9.core.lsq0.ignoredResponses            1                       # Number of memory responses ignored because the instruction is squashed (Count)
board.processor.cores9.core.lsq0.memOrderViolation         2056                       # Number of memory ordering violations (Count)
board.processor.cores9.core.lsq0.squashedStores        12480                       # Number of stores squashed (Count)
board.processor.cores9.core.lsq0.rescheduledLoads            0                       # Number of loads that were rescheduled (Count)
board.processor.cores9.core.lsq0.blockedByCache            0                       # Number of times an access to memory failed due to the cache being blocked (Count)
board.processor.cores9.core.lsq0.loadToUse::samples        33339                       # Distribution of cycle latency between the first time a load is issued and its completion (Unspecified)
board.processor.cores9.core.lsq0.loadToUse::mean     3.478719                       # Distribution of cycle latency between the first time a load is issued and its completion (Unspecified)
board.processor.cores9.core.lsq0.loadToUse::stdev     8.893963                       # Distribution of cycle latency between the first time a load is issued and its completion (Unspecified)
board.processor.cores9.core.lsq0.loadToUse::0-9        33168     99.49%     99.49% # Distribution of cycle latency between the first time a load is issued and its completion (Unspecified)
board.processor.cores9.core.lsq0.loadToUse::10-19            9      0.03%     99.51% # Distribution of cycle latency between the first time a load is issued and its completion (Unspecified)
board.processor.cores9.core.lsq0.loadToUse::60-69            1      0.00%     99.52% # Distribution of cycle latency between the first time a load is issued and its completion (Unspecified)
board.processor.cores9.core.lsq0.loadToUse::80-89            2      0.01%     99.52% # Distribution of cycle latency between the first time a load is issued and its completion (Unspecified)
board.processor.cores9.core.lsq0.loadToUse::110-119          128      0.38%     99.91% # Distribution of cycle latency between the first time a load is issued and its completion (Unspecified)
board.processor.cores9.core.lsq0.loadToUse::120-129           14      0.04%     99.95% # Distribution of cycle latency between the first time a load is issued and its completion (Unspecified)
board.processor.cores9.core.lsq0.loadToUse::160-169            1      0.00%     99.95% # Distribution of cycle latency between the first time a load is issued and its completion (Unspecified)
board.processor.cores9.core.lsq0.loadToUse::170-179           12      0.04%     99.99% # Distribution of cycle latency between the first time a load is issued and its completion (Unspecified)
board.processor.cores9.core.lsq0.loadToUse::180-189            1      0.00%     99.99% # Distribution of cycle latency between the first time a load is issued and its completion (Unspecified)
board.processor.cores9.core.lsq0.loadToUse::220-229            1      0.00%     99.99% # Distribution of cycle latency between the first time a load is issued and its completion (Unspecified)
board.processor.cores9.core.lsq0.loadToUse::290-299            1      0.00%    100.00% # Distribution of cycle latency between the first time a load is issued and its completion (Unspecified)
board.processor.cores9.core.lsq0.loadToUse::overflows            1      0.00%    100.00% # Distribution of cycle latency between the first time a load is issued and its completion (Unspecified)
board.processor.cores9.core.lsq0.loadToUse::min_value            2                       # Distribution of cycle latency between the first time a load is issued and its completion (Unspecified)
board.processor.cores9.core.lsq0.loadToUse::max_value          377                       # Distribution of cycle latency between the first time a load is issued and its completion (Unspecified)
board.processor.cores9.core.lsq0.loadToUse::total        33339                       # Distribution of cycle latency between the first time a load is issued and its completion (Unspecified)
board.processor.cores9.core.mmu.dtb.rdAccesses        56108                       # TLB accesses on read requests (Count)
board.processor.cores9.core.mmu.dtb.wrAccesses        16928                       # TLB accesses on write requests (Count)
board.processor.cores9.core.mmu.dtb.rdMisses           85                       # TLB misses on read requests (Count)
board.processor.cores9.core.mmu.dtb.wrMisses           11                       # TLB misses on write requests (Count)
board.processor.cores9.core.mmu.dtb.walker.power_state.pwrStateResidencyTicks::UNDEFINED    456383826                       # Cumulative time (in ticks) in various power states (Tick)
board.processor.cores9.core.mmu.itb.rdAccesses            0                       # TLB accesses on read requests (Count)
board.processor.cores9.core.mmu.itb.wrAccesses        25503                       # TLB accesses on write requests (Count)
board.processor.cores9.core.mmu.itb.rdMisses            0                       # TLB misses on read requests (Count)
board.processor.cores9.core.mmu.itb.wrMisses          150                       # TLB misses on write requests (Count)
board.processor.cores9.core.mmu.itb.walker.power_state.pwrStateResidencyTicks::UNDEFINED    456383826                       # Cumulative time (in ticks) in various power states (Tick)
board.processor.cores9.core.power_state.pwrStateResidencyTicks::ON    456383826                       # Cumulative time (in ticks) in various power states (Tick)
board.processor.cores9.core.rename.squashCycles         2246                       # Number of cycles rename is squashing (Cycle)
board.processor.cores9.core.rename.idleCycles        25228                       # Number of cycles rename is idle (Cycle)
board.processor.cores9.core.rename.blockCycles        84470                       # Number of cycles rename is blocking (Cycle)
board.processor.cores9.core.rename.serializeStallCycles            0                       # count of cycles rename stalled for serializing inst (Cycle)
board.processor.cores9.core.rename.runCycles        44027                       # Number of cycles rename is running (Cycle)
board.processor.cores9.core.rename.unblockCycles        23494                       # Number of cycles rename is unblocking (Cycle)
board.processor.cores9.core.rename.renamedInsts       321445                       # Number of instructions processed by rename (Count)
board.processor.cores9.core.rename.ROBFullEvents            8                       # Number of times rename has blocked due to ROB full (Count)
board.processor.cores9.core.rename.IQFullEvents        20296                       # Number of times rename has blocked due to IQ full (Count)
board.processor.cores9.core.rename.LQFullEvents           64                       # Number of times rename has blocked due to LQ full (Count)
board.processor.cores9.core.rename.SQFullEvents          947                       # Number of times rename has blocked due to SQ full (Count)
board.processor.cores9.core.rename.renamedOperands       510966                       # Number of destination operands rename has renamed (Count)
board.processor.cores9.core.rename.lookups      1004618                       # Number of register rename lookups that rename has made (Count)
board.processor.cores9.core.rename.intLookups       439910                       # Number of integer rename lookups (Count)
board.processor.cores9.core.rename.fpLookups           14                       # Number of floating rename lookups (Count)
board.processor.cores9.core.rename.committedMaps       208650                       # Number of HB maps that are committed (Count)
board.processor.cores9.core.rename.undoneMaps       302316                       # Number of HB maps that are undone due to squashing (Count)
board.processor.cores9.core.rename.serializing            0                       # count of serializing insts renamed (Count)
board.processor.cores9.core.rename.tempSerializing            0                       # count of temporary serializing insts renamed (Count)
board.processor.cores9.core.rename.skidInsts        32222                       # count of insts added to the skid buffer (Count)
board.processor.cores9.core.rob.reads          452772                       # The number of ROB reads (Count)
board.processor.cores9.core.rob.writes         632217                       # The number of ROB writes (Count)
board.processor.cores9.core.thread_0.numInsts        79780                       # Number of Instructions committed (Count)
board.processor.cores9.core.thread_0.numOps       135227                       # Number of Ops committed (Count)
board.processor.cores9.core.thread_0.numMemRefs            0                       # Number of Memory References (Count)
board.workload.inst.arm                             0                       # number of arm instructions executed (Count)
board.workload.inst.quiesce                         0                       # number of quiesce instructions executed (Count)

---------- End Simulation Statistics   ----------
