gem5 Simulator System.  https://www.gem5.org
gem5 is copyrighted software; use the --copyright option for details.

gem5 version 23.0.1.0
gem5 compiled Nov 30 2023 11:45:00
gem5 started Dec  4 2023 16:03:52
gem5 executing on quzi, pid 6204
command line: gem5.opt -re --outdir=exp_51/BigBuuble ./run.py

Global frequency set at 1000000000000 ticks per second
Beginning bubble sort ... 
Finished bubble sort.
Finished simulation.
