
---------- Begin Simulation Statistics ----------
simSeconds                                   0.001310                       # Number of seconds simulated (Second)
simTicks                                   1310490864                       # Number of ticks simulated (Tick)
finalTick                                  1638377649                       # Number of ticks from beginning of simulation (restored from checkpoints and never reset) (Tick)
simFreq                                  1000000000000                       # The number of ticks per simulated second ((Tick/Second))
hostSeconds                                     60.69                       # Real time elapsed on the host (Second)
hostTickRate                                 21591513                       # The number of ticks simulated per host second (ticks/s) ((Tick/Second))
hostMemory                                    1755516                       # Number of bytes of host memory used (Byte)
simInsts                                      1666607                       # Number of instructions simulated (Count)
simOps                                        2597990                       # Number of ops (including micro ops) simulated (Count)
hostInstRate                                    27459                       # Simulator instruction rate (inst/s) ((Count/Second))
hostOpRate                                      42804                       # Simulator op (including micro ops) rate (op/s) ((Count/Second))
board.cache_hierarchy.ruby_system.delayHistogram::bucket_size         1024                       # delay histogram for all message (Unspecified)
board.cache_hierarchy.ruby_system.delayHistogram::max_bucket        10239                       # delay histogram for all message (Unspecified)
board.cache_hierarchy.ruby_system.delayHistogram::samples       212807                       # delay histogram for all message (Unspecified)
board.cache_hierarchy.ruby_system.delayHistogram::mean   939.591423                       # delay histogram for all message (Unspecified)
board.cache_hierarchy.ruby_system.delayHistogram::stdev  2679.847360                       # delay histogram for all message (Unspecified)
board.cache_hierarchy.ruby_system.delayHistogram |      190027     89.30%     89.30% |          97      0.05%     89.34% |          95      0.04%     89.39% |         161      0.08%     89.46% |         144      0.07%     89.53% |         275      0.13%     89.66% |         152      0.07%     89.73% |        1031      0.48%     90.21% |       17357      8.16%     98.37% |        3468      1.63%    100.00% # delay histogram for all message (Unspecified)
board.cache_hierarchy.ruby_system.delayHistogram::total       212807                       # delay histogram for all message (Unspecified)
board.cache_hierarchy.ruby_system.m_outstandReqHistSeqr::bucket_size            2                       (Unspecified)
board.cache_hierarchy.ruby_system.m_outstandReqHistSeqr::max_bucket           19                       (Unspecified)
board.cache_hierarchy.ruby_system.m_outstandReqHistSeqr::samples      1036691                       (Unspecified)
board.cache_hierarchy.ruby_system.m_outstandReqHistSeqr::mean     1.337719                       (Unspecified)
board.cache_hierarchy.ruby_system.m_outstandReqHistSeqr::gmean     1.254768                       (Unspecified)
board.cache_hierarchy.ruby_system.m_outstandReqHistSeqr::stdev     0.551951                       (Unspecified)
board.cache_hierarchy.ruby_system.m_outstandReqHistSeqr |      706988     68.20%     68.20% |      325101     31.36%     99.56% |        3830      0.37%     99.93% |         397      0.04%     99.96% |         183      0.02%     99.98% |          84      0.01%     99.99% |          33      0.00%     99.99% |          56      0.01%    100.00% |          19      0.00%    100.00% |           0      0.00%    100.00% (Unspecified)
board.cache_hierarchy.ruby_system.m_outstandReqHistSeqr::total      1036691                       (Unspecified)
board.cache_hierarchy.ruby_system.m_latencyHistSeqr::bucket_size          256                       (Unspecified)
board.cache_hierarchy.ruby_system.m_latencyHistSeqr::max_bucket         2559                       (Unspecified)
board.cache_hierarchy.ruby_system.m_latencyHistSeqr::samples      1037045                       (Unspecified)
board.cache_hierarchy.ruby_system.m_latencyHistSeqr::mean    47.892062                       (Unspecified)
board.cache_hierarchy.ruby_system.m_latencyHistSeqr::gmean     1.467654                       (Unspecified)
board.cache_hierarchy.ruby_system.m_latencyHistSeqr::stdev   263.035951                       (Unspecified)
board.cache_hierarchy.ruby_system.m_latencyHistSeqr |     1005746     96.98%     96.98% |        8354      0.81%     97.79% |         192      0.02%     97.81% |         108      0.01%     97.82% |         342      0.03%     97.85% |         290      0.03%     97.88% |        1718      0.17%     98.04% |       20295      1.96%    100.00% |           0      0.00%    100.00% |           0      0.00%    100.00% (Unspecified)
board.cache_hierarchy.ruby_system.m_latencyHistSeqr::total      1037045                       (Unspecified)
board.cache_hierarchy.ruby_system.m_hitLatencyHistSeqr::bucket_size           32                       (Unspecified)
board.cache_hierarchy.ruby_system.m_hitLatencyHistSeqr::max_bucket          319                       (Unspecified)
board.cache_hierarchy.ruby_system.m_hitLatencyHistSeqr::samples       968261                       (Unspecified)
board.cache_hierarchy.ruby_system.m_hitLatencyHistSeqr::mean     1.000731                       (Unspecified)
board.cache_hierarchy.ruby_system.m_hitLatencyHistSeqr::gmean     1.000273                       (Unspecified)
board.cache_hierarchy.ruby_system.m_hitLatencyHistSeqr::stdev     0.286577                       (Unspecified)
board.cache_hierarchy.ruby_system.m_hitLatencyHistSeqr |      968259    100.00%    100.00% |           0      0.00%    100.00% |           1      0.00%    100.00% |           0      0.00%    100.00% |           0      0.00%    100.00% |           0      0.00%    100.00% |           0      0.00%    100.00% |           0      0.00%    100.00% |           1      0.00%    100.00% |           0      0.00%    100.00% (Unspecified)
board.cache_hierarchy.ruby_system.m_hitLatencyHistSeqr::total       968261                       (Unspecified)
board.cache_hierarchy.ruby_system.m_missLatencyHistSeqr::bucket_size          256                       (Unspecified)
board.cache_hierarchy.ruby_system.m_missLatencyHistSeqr::max_bucket         2559                       (Unspecified)
board.cache_hierarchy.ruby_system.m_missLatencyHistSeqr::samples        68784                       (Unspecified)
board.cache_hierarchy.ruby_system.m_missLatencyHistSeqr::mean   707.973569                       (Unspecified)
board.cache_hierarchy.ruby_system.m_missLatencyHistSeqr::gmean   323.959757                       (Unspecified)
board.cache_hierarchy.ruby_system.m_missLatencyHistSeqr::stdev   759.263612                       (Unspecified)
board.cache_hierarchy.ruby_system.m_missLatencyHistSeqr |       37486     54.50%     54.50% |        8353     12.14%     66.64% |         192      0.28%     66.92% |         108      0.16%     67.08% |         342      0.50%     67.58% |         290      0.42%     68.00% |        1718      2.50%     70.49% |       20295     29.51%    100.00% |           0      0.00%    100.00% |           0      0.00%    100.00% (Unspecified)
board.cache_hierarchy.ruby_system.m_missLatencyHistSeqr::total        68784                       (Unspecified)
board.cache_hierarchy.ruby_system.delayVCHist.vnet_0::bucket_size         1024                       # delay histogram for vnet_0 (Unspecified)
board.cache_hierarchy.ruby_system.delayVCHist.vnet_0::max_bucket        10239                       # delay histogram for vnet_0 (Unspecified)
board.cache_hierarchy.ruby_system.delayVCHist.vnet_0::samples       105909                       # delay histogram for vnet_0 (Unspecified)
board.cache_hierarchy.ruby_system.delayVCHist.vnet_0::mean  1887.766668                       # delay histogram for vnet_0 (Unspecified)
board.cache_hierarchy.ruby_system.delayVCHist.vnet_0::stdev  3555.351174                       # delay histogram for vnet_0 (Unspecified)
board.cache_hierarchy.ruby_system.delayVCHist.vnet_0 |       83129     78.49%     78.49% |          97      0.09%     78.58% |          95      0.09%     78.67% |         161      0.15%     78.82% |         144      0.14%     78.96% |         275      0.26%     79.22% |         152      0.14%     79.36% |        1031      0.97%     80.34% |       17357     16.39%     96.73% |        3468      3.27%    100.00% # delay histogram for vnet_0 (Unspecified)
board.cache_hierarchy.ruby_system.delayVCHist.vnet_0::total       105909                       # delay histogram for vnet_0 (Unspecified)
board.cache_hierarchy.ruby_system.delayVCHist.vnet_1::bucket_size            4                       # delay histogram for vnet_1 (Unspecified)
board.cache_hierarchy.ruby_system.delayVCHist.vnet_1::max_bucket           39                       # delay histogram for vnet_1 (Unspecified)
board.cache_hierarchy.ruby_system.delayVCHist.vnet_1::samples        73209                       # delay histogram for vnet_1 (Unspecified)
board.cache_hierarchy.ruby_system.delayVCHist.vnet_1::mean     0.275239                       # delay histogram for vnet_1 (Unspecified)
board.cache_hierarchy.ruby_system.delayVCHist.vnet_1::stdev     1.483867                       # delay histogram for vnet_1 (Unspecified)
board.cache_hierarchy.ruby_system.delayVCHist.vnet_1 |       70690     96.56%     96.56% |         309      0.42%     96.98% |        2110      2.88%     99.86% |          47      0.06%     99.93% |          50      0.07%    100.00% |           1      0.00%    100.00% |           2      0.00%    100.00% |           0      0.00%    100.00% |           0      0.00%    100.00% |           0      0.00%    100.00% # delay histogram for vnet_1 (Unspecified)
board.cache_hierarchy.ruby_system.delayVCHist.vnet_1::total        73209                       # delay histogram for vnet_1 (Unspecified)
board.cache_hierarchy.ruby_system.delayVCHist.vnet_2::bucket_size            1                       # delay histogram for vnet_2 (Unspecified)
board.cache_hierarchy.ruby_system.delayVCHist.vnet_2::max_bucket            9                       # delay histogram for vnet_2 (Unspecified)
board.cache_hierarchy.ruby_system.delayVCHist.vnet_2::samples        33689                       # delay histogram for vnet_2 (Unspecified)
board.cache_hierarchy.ruby_system.delayVCHist.vnet_2::mean     0.000059                       # delay histogram for vnet_2 (Unspecified)
board.cache_hierarchy.ruby_system.delayVCHist.vnet_2::stdev     0.010896                       # delay histogram for vnet_2 (Unspecified)
board.cache_hierarchy.ruby_system.delayVCHist.vnet_2 |       33688    100.00%    100.00% |           0      0.00%    100.00% |           1      0.00%    100.00% |           0      0.00%    100.00% |           0      0.00%    100.00% |           0      0.00%    100.00% |           0      0.00%    100.00% |           0      0.00%    100.00% |           0      0.00%    100.00% |           0      0.00%    100.00% # delay histogram for vnet_2 (Unspecified)
board.cache_hierarchy.ruby_system.delayVCHist.vnet_2::total        33689                       # delay histogram for vnet_2 (Unspecified)
board.cache_hierarchy.ruby_system.Directory_Controller.Fetch         1193      0.00%      0.00% (Unspecified)
board.cache_hierarchy.ruby_system.Directory_Controller.Memory_Data         1193      0.00%      0.00% (Unspecified)
board.cache_hierarchy.ruby_system.Directory_Controller.I.Fetch         1193      0.00%      0.00% (Unspecified)
board.cache_hierarchy.ruby_system.Directory_Controller.IM.Memory_Data         1193      0.00%      0.00% (Unspecified)
board.cache_hierarchy.ruby_system.L1Cache_Controller.Load |       13289      4.68%      4.68% |       16921      5.96%     10.64% |       16908      5.95%     16.59% |       16905      5.95%     22.55% |       16903      5.95%     28.50% |       16923      5.96%     34.46% |       16910      5.96%     40.41% |       16921      5.96%     46.37% |       16914      5.96%     52.33% |       16915      5.96%     58.29% |       16938      5.96%     64.25% |       16904      5.95%     70.20% |       16920      5.96%     76.16% |       16919      5.96%     82.12% |       16914      5.96%     88.08% |       16922      5.96%     94.04% |       16937      5.96%    100.00% (Unspecified)
board.cache_hierarchy.ruby_system.L1Cache_Controller.Load::total       283963                       (Unspecified)
board.cache_hierarchy.ruby_system.L1Cache_Controller.Ifetch |       20520      4.17%      4.17% |       29434      5.98%     10.15% |       29431      5.98%     16.13% |       29428      5.98%     22.11% |       29436      5.98%     28.09% |       29451      5.98%     34.07% |       29467      5.99%     40.06% |       29455      5.98%     46.05% |       29487      5.99%     52.04% |       29456      5.98%     58.02% |       29487      5.99%     64.01% |       29430      5.98%     69.99% |       29529      6.00%     75.99% |       29481      5.99%     81.98% |       29515      6.00%     87.98% |       29617      6.02%     94.00% |       29545      6.00%    100.00% (Unspecified)
board.cache_hierarchy.ruby_system.L1Cache_Controller.Ifetch::total       492169                       (Unspecified)
board.cache_hierarchy.ruby_system.L1Cache_Controller.Store |       22751      8.72%      8.72% |       14793      5.67%     14.39% |       14793      5.67%     20.06% |       14793      5.67%     25.73% |       14793      5.67%     31.40% |       14793      5.67%     37.07% |       14793      5.67%     42.74% |       14793      5.67%     48.41% |       14796      5.67%     54.08% |       14793      5.67%     59.75% |       14793      5.67%     65.42% |       14793      5.67%     71.09% |       15085      5.78%     76.87% |       15085      5.78%     82.65% |       15087      5.78%     88.43% |       15093      5.78%     94.22% |       15085      5.78%    100.00% (Unspecified)
board.cache_hierarchy.ruby_system.L1Cache_Controller.Store::total       260912                       (Unspecified)
board.cache_hierarchy.ruby_system.L1Cache_Controller.Inv |          78     28.26%     28.26% |          14      5.07%     33.33% |          10      3.62%     36.96% |          11      3.99%     40.94% |          11      3.99%     44.93% |          12      4.35%     49.28% |          11      3.99%     53.26% |          14      5.07%     58.33% |          14      5.07%     63.41% |          12      4.35%     67.75% |          11      3.99%     71.74% |          12      4.35%     76.09% |          10      3.62%     79.71% |          11      3.99%     83.70% |          15      5.43%     89.13% |          16      5.80%     94.93% |          14      5.07%    100.00% (Unspecified)
board.cache_hierarchy.ruby_system.L1Cache_Controller.Inv::total          276                       (Unspecified)
board.cache_hierarchy.ruby_system.L1Cache_Controller.L1_Replacement |         859      3.21%      3.21% |        1609      6.01%      9.22% |        1609      6.01%     15.23% |        1609      6.01%     21.24% |        1610      6.01%     27.25% |        1612      6.02%     33.27% |        1610      6.01%     39.29% |        1612      6.02%     45.31% |        1609      6.01%     51.32% |        1612      6.02%     57.34% |        1612      6.02%     63.36% |        1610      6.01%     69.38% |        1641      6.13%     75.51% |        1639      6.12%     81.63% |        1639      6.12%     87.75% |        1640      6.13%     93.88% |        1639      6.12%    100.00% (Unspecified)
board.cache_hierarchy.ruby_system.L1Cache_Controller.L1_Replacement::total        26771                       (Unspecified)
board.cache_hierarchy.ruby_system.L1Cache_Controller.Fwd_GETX |          36      0.12%      0.12% |        2023      6.52%      6.63% |        1944      6.26%     12.90% |        1933      6.23%     19.12% |        1933      6.23%     25.35% |        1933      6.23%     31.58% |        1934      6.23%     37.81% |        1933      6.23%     44.04% |        1922      6.19%     50.23% |        1922      6.19%     56.42% |        1923      6.20%     62.62% |        1921      6.19%     68.81% |        1914      6.17%     74.98% |        1911      6.16%     81.13% |        1971      6.35%     87.48% |        1949      6.28%     93.76% |        1936      6.24%    100.00% (Unspecified)
board.cache_hierarchy.ruby_system.L1Cache_Controller.Fwd_GETX::total        31038                       (Unspecified)
board.cache_hierarchy.ruby_system.L1Cache_Controller.Fwd_GETS |         402     16.93%     16.93% |         246     10.36%     27.28% |          11      0.46%     27.75% |          11      0.46%     28.21% |          11      0.46%     28.67% |          11      0.46%     29.14% |          13      0.55%     29.68% |          13      0.55%     30.23% |           8      0.34%     30.57% |           8      0.34%     30.91% |           7      0.29%     31.20% |           8      0.34%     31.54% |           9      0.38%     31.92% |        1580     66.53%     98.44% |          12      0.51%     98.95% |          15      0.63%     99.58% |          10      0.42%    100.00% (Unspecified)
board.cache_hierarchy.ruby_system.L1Cache_Controller.Fwd_GETS::total         2375                       (Unspecified)
board.cache_hierarchy.ruby_system.L1Cache_Controller.Data |           0      0.00%      0.00% |           0      0.00%      0.00% |           0      0.00%      0.00% |           0      0.00%      0.00% |           0      0.00%      0.00% |           0      0.00%      0.00% |           0      0.00%      0.00% |           0      0.00%      0.00% |           1     16.67%     16.67% |           1     16.67%     33.33% |           0      0.00%     33.33% |           1     16.67%     50.00% |           1     16.67%     66.67% |           0      0.00%     66.67% |           2     33.33%    100.00% |           0      0.00%    100.00% |           0      0.00%    100.00% (Unspecified)
board.cache_hierarchy.ruby_system.L1Cache_Controller.Data::total            6                       (Unspecified)
board.cache_hierarchy.ruby_system.L1Cache_Controller.Data_Exclusive |          68      3.25%      3.25% |         246     11.74%     14.99% |          15      0.72%     15.70% |          14      0.67%     16.37% |          14      0.67%     17.04% |          14      0.67%     17.71% |          16      0.76%     18.47% |          14      0.67%     19.14% |          14      0.67%     19.81% |          15      0.72%     20.53% |          14      0.67%     21.19% |          14      0.67%     21.86% |          15      0.72%     22.58% |        1582     75.51%     98.09% |          13      0.62%     98.71% |          14      0.67%     99.38% |          13      0.62%    100.00% (Unspecified)
board.cache_hierarchy.ruby_system.L1Cache_Controller.Data_Exclusive::total         2095                       (Unspecified)
board.cache_hierarchy.ruby_system.L1Cache_Controller.DataS_fromL1 |          42      1.77%      1.77% |          38      1.60%      3.37% |         188      7.92%     11.28% |          16      0.67%     11.96% |          17      0.72%     12.67% |          18      0.76%     13.43% |          18      0.76%     14.19% |          17      0.72%     14.91% |          21      0.88%     15.79% |          19      0.80%     16.59% |          19      0.80%     17.39% |          17      0.72%     18.11% |          12      0.51%     18.61% |         335     14.11%     32.72% |         584     24.59%     57.31% |          69      2.91%     60.21% |         945     39.79%    100.00% (Unspecified)
board.cache_hierarchy.ruby_system.L1Cache_Controller.DataS_fromL1::total         2375                       (Unspecified)
board.cache_hierarchy.ruby_system.L1Cache_Controller.Data_all_Acks |         774      1.21%      1.21% |        4008      6.25%      7.46% |        4006      6.25%     13.71% |        4168      6.50%     20.22% |        4168      6.50%     26.72% |        4175      6.51%     33.23% |        4170      6.51%     39.74% |        4180      6.52%     46.26% |        4177      6.52%     52.78% |        4176      6.52%     59.29% |        4178      6.52%     65.81% |        4170      6.51%     72.32% |        4227      6.60%     78.91% |        2314      3.61%     82.52% |        3700      5.77%     88.30% |        4197      6.55%     94.85% |        3303      5.15%    100.00% (Unspecified)
board.cache_hierarchy.ruby_system.L1Cache_Controller.Data_all_Acks::total        64091                       (Unspecified)
board.cache_hierarchy.ruby_system.L1Cache_Controller.Ack |          38     14.07%     14.07% |          14      5.19%     19.26% |          12      4.44%     23.70% |          12      4.44%     28.15% |          12      4.44%     32.59% |          12      4.44%     37.04% |          15      5.56%     42.59% |          16      5.93%     48.52% |          17      6.30%     54.81% |          22      8.15%     62.96% |          17      6.30%     69.26% |          15      5.56%     74.81% |          22      8.15%     82.96% |          12      4.44%     87.41% |           9      3.33%     90.74% |          10      3.70%     94.44% |          15      5.56%    100.00% (Unspecified)
board.cache_hierarchy.ruby_system.L1Cache_Controller.Ack::total          270                       (Unspecified)
board.cache_hierarchy.ruby_system.L1Cache_Controller.Ack_all |          34     15.25%     15.25% |          13      5.83%     21.08% |          12      5.38%     26.46% |          12      5.38%     31.84% |          12      5.38%     37.22% |          12      5.38%     42.60% |          13      5.83%     48.43% |          14      6.28%     54.71% |          13      5.83%     60.54% |          14      6.28%     66.82% |          13      5.83%     72.65% |          13      5.83%     78.48% |           9      4.04%     82.51% |          10      4.48%     87.00% |           9      4.04%     91.03% |          10      4.48%     95.52% |          10      4.48%    100.00% (Unspecified)
board.cache_hierarchy.ruby_system.L1Cache_Controller.Ack_all::total          223                       (Unspecified)
board.cache_hierarchy.ruby_system.L1Cache_Controller.WB_Ack |         358     61.62%     61.62% |          13      2.24%     63.86% |          14      2.41%     66.27% |          14      2.41%     68.67% |          14      2.41%     71.08% |          14      2.41%     73.49% |          14      2.41%     75.90% |          14      2.41%     78.31% |          14      2.41%     80.72% |          14      2.41%     83.13% |          14      2.41%     85.54% |          14      2.41%     87.95% |          14      2.41%     90.36% |          14      2.41%     92.77% |          14      2.41%     95.18% |          14      2.41%     97.59% |          14      2.41%    100.00% (Unspecified)
board.cache_hierarchy.ruby_system.L1Cache_Controller.WB_Ack::total          581                       (Unspecified)
board.cache_hierarchy.ruby_system.L1Cache_Controller.NP.Load |         126      0.37%      0.37% |        2093      6.23%      6.60% |        2094      6.23%     12.83% |        2093      6.23%     19.06% |        2094      6.23%     25.29% |        2094      6.23%     31.52% |        2093      6.23%     37.75% |        2094      6.23%     43.98% |        2093      6.23%     50.21% |        2095      6.23%     56.44% |        2094      6.23%     62.67% |        2094      6.23%     68.91% |        2091      6.22%     75.13% |        2090      6.22%     81.35% |        2089      6.22%     87.56% |        2091      6.22%     93.78% |        2089      6.22%    100.00% (Unspecified)
board.cache_hierarchy.ruby_system.L1Cache_Controller.NP.Load::total        33607                       (Unspecified)
board.cache_hierarchy.ruby_system.L1Cache_Controller.NP.Ifetch |         338     11.13%     11.13% |         158      5.20%     16.34% |         158      5.20%     21.54% |         158      5.20%     26.75% |         158      5.20%     31.95% |         165      5.43%     37.38% |         161      5.30%     42.69% |         166      5.47%     48.16% |         164      5.40%     53.56% |         164      5.40%     58.96% |         164      5.40%     64.36% |         158      5.20%     69.57% |         184      6.06%     75.63% |         183      6.03%     81.65% |         185      6.09%     87.75% |         187      6.16%     93.91% |         185      6.09%    100.00% (Unspecified)
board.cache_hierarchy.ruby_system.L1Cache_Controller.NP.Ifetch::total         3036                       (Unspecified)
board.cache_hierarchy.ruby_system.L1Cache_Controller.NP.Store |         395     38.95%     38.95% |          28      2.76%     41.72% |          27      2.66%     44.38% |          28      2.76%     47.14% |          28      2.76%     49.90% |          29      2.86%     52.76% |          29      2.86%     55.62% |          29      2.86%     58.48% |          28      2.76%     61.24% |          28      2.76%     64.00% |          29      2.86%     66.86% |          28      2.76%     69.63% |          62      6.11%     75.74% |          61      6.02%     81.76% |          62      6.11%     87.87% |          61      6.02%     93.89% |          62      6.11%    100.00% (Unspecified)
board.cache_hierarchy.ruby_system.L1Cache_Controller.NP.Store::total         1014                       (Unspecified)
board.cache_hierarchy.ruby_system.L1Cache_Controller.NP.Inv |          10    100.00%    100.00% |           0      0.00%    100.00% |           0      0.00%    100.00% |           0      0.00%    100.00% |           0      0.00%    100.00% |           0      0.00%    100.00% |           0      0.00%    100.00% |           0      0.00%    100.00% |           0      0.00%    100.00% |           0      0.00%    100.00% |           0      0.00%    100.00% |           0      0.00%    100.00% |           0      0.00%    100.00% |           0      0.00%    100.00% |           0      0.00%    100.00% |           0      0.00%    100.00% |           0      0.00%    100.00% (Unspecified)
board.cache_hierarchy.ruby_system.L1Cache_Controller.NP.Inv::total           10                       (Unspecified)
board.cache_hierarchy.ruby_system.L1Cache_Controller.I.Load |          23     34.85%     34.85% |           3      4.55%     39.39% |           0      0.00%     39.39% |           0      0.00%     39.39% |           0      0.00%     39.39% |           0      0.00%     39.39% |           2      3.03%     42.42% |           3      4.55%     46.97% |           7     10.61%     57.58% |           4      6.06%     63.64% |           4      6.06%     69.70% |           2      3.03%     72.73% |           3      4.55%     77.27% |           1      1.52%     78.79% |           4      6.06%     84.85% |           4      6.06%     90.91% |           6      9.09%    100.00% (Unspecified)
board.cache_hierarchy.ruby_system.L1Cache_Controller.I.Load::total           66                       (Unspecified)
board.cache_hierarchy.ruby_system.L1Cache_Controller.I.Store |           1      0.00%      0.00% |        2010      6.52%      6.52% |        1930      6.26%     12.78% |        1919      6.22%     19.00% |        1919      6.22%     25.22% |        1919      6.22%     31.44% |        1919      6.22%     37.66% |        1919      6.22%     43.89% |        1921      6.23%     50.12% |        1920      6.23%     56.34% |        1920      6.23%     62.57% |        1920      6.23%     68.79% |        1915      6.21%     75.00% |        1896      6.15%     81.15% |        1959      6.35%     87.50% |        1937      6.28%     93.78% |        1919      6.22%    100.00% (Unspecified)
board.cache_hierarchy.ruby_system.L1Cache_Controller.I.Store::total        30843                       (Unspecified)
board.cache_hierarchy.ruby_system.L1Cache_Controller.I.L1_Replacement |          58     95.08%     95.08% |           1      1.64%     96.72% |           0      0.00%     96.72% |           0      0.00%     96.72% |           0      0.00%     96.72% |           1      1.64%     98.36% |           0      0.00%     98.36% |           0      0.00%     98.36% |           0      0.00%     98.36% |           1      1.64%    100.00% |           0      0.00%    100.00% |           0      0.00%    100.00% |           0      0.00%    100.00% |           0      0.00%    100.00% |           0      0.00%    100.00% |           0      0.00%    100.00% |           0      0.00%    100.00% (Unspecified)
board.cache_hierarchy.ruby_system.L1Cache_Controller.I.L1_Replacement::total           61                       (Unspecified)
board.cache_hierarchy.ruby_system.L1Cache_Controller.S.Load |         257     18.06%     18.06% |          74      5.20%     23.26% |          68      4.78%     28.04% |          62      4.36%     32.40% |          58      4.08%     36.47% |          67      4.71%     41.18% |          77      5.41%     46.59% |          84      5.90%     52.49% |          84      5.90%     58.40% |          84      5.90%     64.30% |          95      6.68%     70.98% |          78      5.48%     76.46% |          60      4.22%     80.67% |          56      3.94%     84.61% |          75      5.27%     89.88% |          74      5.20%     95.08% |          70      4.92%    100.00% (Unspecified)
board.cache_hierarchy.ruby_system.L1Cache_Controller.S.Load::total         1423                       (Unspecified)
board.cache_hierarchy.ruby_system.L1Cache_Controller.S.Ifetch |       20182      4.13%      4.13% |       29276      5.99%     10.11% |       29273      5.98%     16.10% |       29270      5.98%     22.08% |       29278      5.99%     28.07% |       29286      5.99%     34.05% |       29306      5.99%     40.04% |       29289      5.99%     46.03% |       29323      5.99%     52.03% |       29292      5.99%     58.02% |       29323      5.99%     64.01% |       29272      5.98%     70.00% |       29345      6.00%     75.99% |       29298      5.99%     81.98% |       29330      6.00%     87.98% |       29430      6.02%     94.00% |       29360      6.00%    100.00% (Unspecified)
board.cache_hierarchy.ruby_system.L1Cache_Controller.S.Ifetch::total       489133                       (Unspecified)
board.cache_hierarchy.ruby_system.L1Cache_Controller.S.Store |          34     15.67%     15.67% |          13      5.99%     21.66% |          12      5.53%     27.19% |          12      5.53%     32.72% |          12      5.53%     38.25% |          12      5.53%     43.78% |          13      5.99%     49.77% |          14      6.45%     56.22% |          12      5.53%     61.75% |          13      5.99%     67.74% |          13      5.99%     73.73% |          12      5.53%     79.26% |           8      3.69%     82.95% |          10      4.61%     87.56% |           7      3.23%     90.78% |          10      4.61%     95.39% |          10      4.61%    100.00% (Unspecified)
board.cache_hierarchy.ruby_system.L1Cache_Controller.S.Store::total          217                       (Unspecified)
board.cache_hierarchy.ruby_system.L1Cache_Controller.S.Inv |          67     25.38%     25.38% |          14      5.30%     30.68% |          10      3.79%     34.47% |          11      4.17%     38.64% |          11      4.17%     42.80% |          12      4.55%     47.35% |          11      4.17%     51.52% |          14      5.30%     56.82% |          14      5.30%     62.12% |          11      4.17%     66.29% |          11      4.17%     70.45% |          12      4.55%     75.00% |          10      3.79%     78.79% |          11      4.17%     82.95% |          15      5.68%     88.64% |          16      6.06%     94.70% |          14      5.30%    100.00% (Unspecified)
board.cache_hierarchy.ruby_system.L1Cache_Controller.S.Inv::total          264                       (Unspecified)
board.cache_hierarchy.ruby_system.L1Cache_Controller.S.L1_Replacement |         443      1.70%      1.70% |        1595      6.10%      7.80% |        1595      6.10%     13.90% |        1595      6.10%     20.01% |        1596      6.11%     26.12% |        1597      6.11%     32.23% |        1596      6.11%     38.34% |        1598      6.12%     44.45% |        1595      6.10%     50.56% |        1597      6.11%     56.67% |        1598      6.12%     62.78% |        1596      6.11%     68.89% |        1627      6.23%     75.12% |        1625      6.22%     81.34% |        1625      6.22%     87.56% |        1626      6.22%     93.78% |        1625      6.22%    100.00% (Unspecified)
board.cache_hierarchy.ruby_system.L1Cache_Controller.S.L1_Replacement::total        26129                       (Unspecified)
board.cache_hierarchy.ruby_system.L1Cache_Controller.E.Load |        1569     91.54%     91.54% |           8      0.47%     92.01% |           9      0.53%     92.53% |           9      0.53%     93.06% |           9      0.53%     93.58% |           8      0.47%     94.05% |          12      0.70%     94.75% |           8      0.47%     95.22% |           9      0.53%     95.74% |           8      0.47%     96.21% |           8      0.47%     96.67% |           8      0.47%     97.14% |           9      0.53%     97.67% |          10      0.58%     98.25% |          10      0.58%     98.83% |          10      0.58%     99.42% |          10      0.58%    100.00% (Unspecified)
board.cache_hierarchy.ruby_system.L1Cache_Controller.E.Load::total         1714                       (Unspecified)
board.cache_hierarchy.ruby_system.L1Cache_Controller.E.Store |          16     10.26%     10.26% |           8      5.13%     15.38% |          10      6.41%     21.79% |           9      5.77%     27.56% |           9      5.77%     33.33% |           8      5.13%     38.46% |           8      5.13%     43.59% |           8      5.13%     48.72% |           9      5.77%     54.49% |           9      5.77%     60.26% |           8      5.13%     65.38% |           9      5.77%     71.15% |           8      5.13%     76.28% |           9      5.77%     82.05% |           9      5.77%     87.82% |          10      6.41%     94.23% |           9      5.77%    100.00% (Unspecified)
board.cache_hierarchy.ruby_system.L1Cache_Controller.E.Store::total          156                       (Unspecified)
board.cache_hierarchy.ruby_system.L1Cache_Controller.E.L1_Replacement |          11     40.74%     40.74% |           1      3.70%     44.44% |           1      3.70%     48.15% |           1      3.70%     51.85% |           1      3.70%     55.56% |           1      3.70%     59.26% |           1      3.70%     62.96% |           1      3.70%     66.67% |           1      3.70%     70.37% |           1      3.70%     74.07% |           1      3.70%     77.78% |           1      3.70%     81.48% |           1      3.70%     85.19% |           1      3.70%     88.89% |           1      3.70%     92.59% |           1      3.70%     96.30% |           1      3.70%    100.00% (Unspecified)
board.cache_hierarchy.ruby_system.L1Cache_Controller.E.L1_Replacement::total           27                       (Unspecified)
board.cache_hierarchy.ruby_system.L1Cache_Controller.E.Fwd_GETS |           6      0.33%      0.33% |         234     12.84%     13.17% |           1      0.05%     13.22% |           1      0.05%     13.27% |           1      0.05%     13.33% |           1      0.05%     13.38% |           3      0.16%     13.55% |           1      0.05%     13.60% |           1      0.05%     13.66% |           1      0.05%     13.71% |           1      0.05%     13.77% |           1      0.05%     13.82% |           2      0.11%     13.93% |        1569     86.07%    100.00% |           0      0.00%    100.00% |           0      0.00%    100.00% |           0      0.00%    100.00% (Unspecified)
board.cache_hierarchy.ruby_system.L1Cache_Controller.E.Fwd_GETS::total         1823                       (Unspecified)
board.cache_hierarchy.ruby_system.L1Cache_Controller.M.Load |       11314      4.58%      4.58% |       14743      5.97%     10.54% |       14737      5.96%     16.51% |       14741      5.96%     22.47% |       14742      5.96%     28.43% |       14754      5.97%     34.40% |       14726      5.96%     40.36% |       14732      5.96%     46.32% |       14721      5.96%     52.28% |       14724      5.96%     58.24% |       14737      5.96%     64.20% |       14722      5.96%     70.16% |       14757      5.97%     76.13% |       14762      5.97%     82.10% |       14736      5.96%     88.06% |       14743      5.97%     94.03% |       14762      5.97%    100.00% (Unspecified)
board.cache_hierarchy.ruby_system.L1Cache_Controller.M.Load::total       247153                       (Unspecified)
board.cache_hierarchy.ruby_system.L1Cache_Controller.M.Store |       22305      9.75%      9.75% |       12734      5.57%     15.32% |       12814      5.60%     20.93% |       12825      5.61%     26.53% |       12825      5.61%     32.14% |       12825      5.61%     37.75% |       12824      5.61%     43.36% |       12823      5.61%     48.97% |       12826      5.61%     54.57% |       12823      5.61%     60.18% |       12823      5.61%     65.79% |       12824      5.61%     71.40% |       13092      5.72%     77.12% |       13109      5.73%     82.85% |       13050      5.71%     88.56% |       13075      5.72%     94.28% |       13085      5.72%    100.00% (Unspecified)
board.cache_hierarchy.ruby_system.L1Cache_Controller.M.Store::total       228682                       (Unspecified)
board.cache_hierarchy.ruby_system.L1Cache_Controller.M.L1_Replacement |         347     62.64%     62.64% |          12      2.17%     64.80% |          13      2.35%     67.15% |          13      2.35%     69.49% |          13      2.35%     71.84% |          13      2.35%     74.19% |          13      2.35%     76.53% |          13      2.35%     78.88% |          13      2.35%     81.23% |          13      2.35%     83.57% |          13      2.35%     85.92% |          13      2.35%     88.27% |          13      2.35%     90.61% |          13      2.35%     92.96% |          13      2.35%     95.31% |          13      2.35%     97.65% |          13      2.35%    100.00% (Unspecified)
board.cache_hierarchy.ruby_system.L1Cache_Controller.M.L1_Replacement::total          554                       (Unspecified)
board.cache_hierarchy.ruby_system.L1Cache_Controller.M.Fwd_GETX |          36      0.12%      0.12% |        2023      6.52%      6.63% |        1944      6.26%     12.90% |        1933      6.23%     19.12% |        1933      6.23%     25.35% |        1933      6.23%     31.58% |        1934      6.23%     37.81% |        1933      6.23%     44.04% |        1922      6.19%     50.23% |        1922      6.19%     56.42% |        1923      6.20%     62.62% |        1921      6.19%     68.81% |        1914      6.17%     74.98% |        1911      6.16%     81.13% |        1971      6.35%     87.48% |        1949      6.28%     93.76% |        1936      6.24%    100.00% (Unspecified)
board.cache_hierarchy.ruby_system.L1Cache_Controller.M.Fwd_GETX::total        31038                       (Unspecified)
board.cache_hierarchy.ruby_system.L1Cache_Controller.M.Fwd_GETS |         396     71.74%     71.74% |          12      2.17%     73.91% |          10      1.81%     75.72% |          10      1.81%     77.54% |          10      1.81%     79.35% |          10      1.81%     81.16% |          10      1.81%     82.97% |          12      2.17%     85.14% |           7      1.27%     86.41% |           7      1.27%     87.68% |           6      1.09%     88.77% |           7      1.27%     90.04% |           7      1.27%     91.30% |          11      1.99%     93.30% |          12      2.17%     95.47% |          15      2.72%     98.19% |          10      1.81%    100.00% (Unspecified)
board.cache_hierarchy.ruby_system.L1Cache_Controller.M.Fwd_GETS::total          552                       (Unspecified)
board.cache_hierarchy.ruby_system.L1Cache_Controller.IS.Inv |           1     50.00%     50.00% |           0      0.00%     50.00% |           0      0.00%     50.00% |           0      0.00%     50.00% |           0      0.00%     50.00% |           0      0.00%     50.00% |           0      0.00%     50.00% |           0      0.00%     50.00% |           0      0.00%     50.00% |           1     50.00%    100.00% |           0      0.00%    100.00% |           0      0.00%    100.00% |           0      0.00%    100.00% |           0      0.00%    100.00% |           0      0.00%    100.00% |           0      0.00%    100.00% |           0      0.00%    100.00% (Unspecified)
board.cache_hierarchy.ruby_system.L1Cache_Controller.IS.Inv::total            2                       (Unspecified)
board.cache_hierarchy.ruby_system.L1Cache_Controller.IS.Data_Exclusive |          68      3.25%      3.25% |         246     11.74%     14.99% |          15      0.72%     15.70% |          14      0.67%     16.37% |          14      0.67%     17.04% |          14      0.67%     17.71% |          16      0.76%     18.47% |          14      0.67%     19.14% |          14      0.67%     19.81% |          15      0.72%     20.53% |          14      0.67%     21.19% |          14      0.67%     21.86% |          15      0.72%     22.58% |        1582     75.51%     98.09% |          13      0.62%     98.71% |          14      0.67%     99.38% |          13      0.62%    100.00% (Unspecified)
board.cache_hierarchy.ruby_system.L1Cache_Controller.IS.Data_Exclusive::total         2095                       (Unspecified)
board.cache_hierarchy.ruby_system.L1Cache_Controller.IS.DataS_fromL1 |          42      1.77%      1.77% |          38      1.60%      3.37% |         188      7.92%     11.28% |          16      0.67%     11.96% |          17      0.72%     12.67% |          18      0.76%     13.43% |          18      0.76%     14.19% |          17      0.72%     14.91% |          21      0.88%     15.79% |          19      0.80%     16.59% |          19      0.80%     17.39% |          17      0.72%     18.11% |          12      0.51%     18.61% |         335     14.11%     32.72% |         584     24.59%     57.31% |          69      2.91%     60.21% |         945     39.79%    100.00% (Unspecified)
board.cache_hierarchy.ruby_system.L1Cache_Controller.IS.DataS_fromL1::total         2375                       (Unspecified)
board.cache_hierarchy.ruby_system.L1Cache_Controller.IS.Data_all_Acks |         377      1.17%      1.17% |        1970      6.11%      7.28% |        2049      6.36%     13.64% |        2221      6.89%     20.53% |        2221      6.89%     27.41% |        2227      6.91%     34.32% |        2222      6.89%     41.22% |        2232      6.92%     48.14% |        2229      6.91%     55.05% |        2228      6.91%     61.96% |        2229      6.91%     68.88% |        2223      6.90%     75.77% |        2251      6.98%     82.76% |         357      1.11%     83.86% |        1681      5.21%     89.08% |        2199      6.82%     95.90% |        1322      4.10%    100.00% (Unspecified)
board.cache_hierarchy.ruby_system.L1Cache_Controller.IS.Data_all_Acks::total        32238                       (Unspecified)
board.cache_hierarchy.ruby_system.L1Cache_Controller.IM.Data |           0      0.00%      0.00% |           0      0.00%      0.00% |           0      0.00%      0.00% |           0      0.00%      0.00% |           0      0.00%      0.00% |           0      0.00%      0.00% |           0      0.00%      0.00% |           0      0.00%      0.00% |           1     16.67%     16.67% |           1     16.67%     33.33% |           0      0.00%     33.33% |           1     16.67%     50.00% |           1     16.67%     66.67% |           0      0.00%     66.67% |           2     33.33%    100.00% |           0      0.00%    100.00% |           0      0.00%    100.00% (Unspecified)
board.cache_hierarchy.ruby_system.L1Cache_Controller.IM.Data::total            6                       (Unspecified)
board.cache_hierarchy.ruby_system.L1Cache_Controller.IM.Data_all_Acks |         396      1.24%      1.24% |        2038      6.40%      7.64% |        1957      6.14%     13.79% |        1947      6.11%     19.90% |        1947      6.11%     26.01% |        1948      6.12%     32.13% |        1948      6.12%     38.24% |        1948      6.12%     44.36% |        1948      6.12%     50.48% |        1947      6.11%     56.59% |        1949      6.12%     62.71% |        1947      6.11%     68.82% |        1976      6.20%     75.02% |        1957      6.14%     81.17% |        2019      6.34%     87.51% |        1998      6.27%     93.78% |        1981      6.22%    100.00% (Unspecified)
board.cache_hierarchy.ruby_system.L1Cache_Controller.IM.Data_all_Acks::total        31851                       (Unspecified)
board.cache_hierarchy.ruby_system.L1Cache_Controller.SM.Ack |          38     14.07%     14.07% |          14      5.19%     19.26% |          12      4.44%     23.70% |          12      4.44%     28.15% |          12      4.44%     32.59% |          12      4.44%     37.04% |          15      5.56%     42.59% |          16      5.93%     48.52% |          17      6.30%     54.81% |          22      8.15%     62.96% |          17      6.30%     69.26% |          15      5.56%     74.81% |          22      8.15%     82.96% |          12      4.44%     87.41% |           9      3.33%     90.74% |          10      3.70%     94.44% |          15      5.56%    100.00% (Unspecified)
board.cache_hierarchy.ruby_system.L1Cache_Controller.SM.Ack::total          270                       (Unspecified)
board.cache_hierarchy.ruby_system.L1Cache_Controller.SM.Ack_all |          34     15.25%     15.25% |          13      5.83%     21.08% |          12      5.38%     26.46% |          12      5.38%     31.84% |          12      5.38%     37.22% |          12      5.38%     42.60% |          13      5.83%     48.43% |          14      6.28%     54.71% |          13      5.83%     60.54% |          14      6.28%     66.82% |          13      5.83%     72.65% |          13      5.83%     78.48% |           9      4.04%     82.51% |          10      4.48%     87.00% |           9      4.04%     91.03% |          10      4.48%     95.52% |          10      4.48%    100.00% (Unspecified)
board.cache_hierarchy.ruby_system.L1Cache_Controller.SM.Ack_all::total          223                       (Unspecified)
board.cache_hierarchy.ruby_system.L1Cache_Controller.IS_I.Data_all_Acks |           1     50.00%     50.00% |           0      0.00%     50.00% |           0      0.00%     50.00% |           0      0.00%     50.00% |           0      0.00%     50.00% |           0      0.00%     50.00% |           0      0.00%     50.00% |           0      0.00%     50.00% |           0      0.00%     50.00% |           1     50.00%    100.00% |           0      0.00%    100.00% |           0      0.00%    100.00% |           0      0.00%    100.00% |           0      0.00%    100.00% |           0      0.00%    100.00% |           0      0.00%    100.00% |           0      0.00%    100.00% (Unspecified)
board.cache_hierarchy.ruby_system.L1Cache_Controller.IS_I.Data_all_Acks::total            2                       (Unspecified)
board.cache_hierarchy.ruby_system.L1Cache_Controller.M_I.WB_Ack |         358     61.62%     61.62% |          13      2.24%     63.86% |          14      2.41%     66.27% |          14      2.41%     68.67% |          14      2.41%     71.08% |          14      2.41%     73.49% |          14      2.41%     75.90% |          14      2.41%     78.31% |          14      2.41%     80.72% |          14      2.41%     83.13% |          14      2.41%     85.54% |          14      2.41%     87.95% |          14      2.41%     90.36% |          14      2.41%     92.77% |          14      2.41%     95.18% |          14      2.41%     97.59% |          14      2.41%    100.00% (Unspecified)
board.cache_hierarchy.ruby_system.L1Cache_Controller.M_I.WB_Ack::total          581                       (Unspecified)
board.cache_hierarchy.ruby_system.L2Cache_Controller.L1_GET_INSTR |         140      4.61%      4.61% |         170      5.60%     10.21% |         221      7.28%     17.48% |         250      8.23%     25.72% |         216      7.11%     32.83% |         180      5.93%     38.76% |         206      6.78%     45.54% |         154      5.07%     50.61% |         203      6.68%     57.29% |         204      6.72%     64.01% |         195      6.42%     70.43% |         209      6.88%     77.31% |         217      7.15%     84.46% |         204      6.72%     91.18% |         155      5.10%     96.28% |         113      3.72%    100.00% (Unspecified)
board.cache_hierarchy.ruby_system.L2Cache_Controller.L1_GET_INSTR::total         3037                       (Unspecified)
board.cache_hierarchy.ruby_system.L2Cache_Controller.L1_GETS |        2069      6.14%      6.14% |        2148      6.37%     12.51% |        2133      6.33%     18.84% |        2139      6.35%     25.18% |        2119      6.29%     31.47% |        2121      6.29%     37.76% |        2108      6.25%     44.02% |        2079      6.17%     50.19% |        2078      6.16%     56.35% |        2124      6.30%     62.65% |        2148      6.37%     69.02% |        2053      6.09%     75.11% |        2084      6.18%     81.30% |        2081      6.17%     87.47% |        2121      6.29%     93.76% |        2102      6.24%    100.00% (Unspecified)
board.cache_hierarchy.ruby_system.L2Cache_Controller.L1_GETS::total        33707                       (Unspecified)
board.cache_hierarchy.ruby_system.L2Cache_Controller.L1_GETX |      248698     91.26%     91.26% |       22917      8.41%     99.67% |          55      0.02%     99.69% |          56      0.02%     99.71% |          94      0.03%     99.74% |         114      0.04%     99.78% |          77      0.03%     99.81% |          82      0.03%     99.84% |          82      0.03%     99.87% |          49      0.02%     99.89% |          59      0.02%     99.91% |          34      0.01%     99.92% |          66      0.02%     99.95% |          65      0.02%     99.97% |          46      0.02%     99.99% |          32      0.01%    100.00% (Unspecified)
board.cache_hierarchy.ruby_system.L2Cache_Controller.L1_GETX::total       272526                       (Unspecified)
board.cache_hierarchy.ruby_system.L2Cache_Controller.L1_UPGRADE |           1      0.46%      0.46% |          55     25.11%     25.57% |          27     12.33%     37.90% |          13      5.94%     43.84% |           9      4.11%     47.95% |          33     15.07%     63.01% |           5      2.28%     65.30% |           5      2.28%     67.58% |           2      0.91%     68.49% |           2      0.91%     69.41% |          33     15.07%     84.47% |           0      0.00%     84.47% |          13      5.94%     90.41% |           3      1.37%     91.78% |          17      7.76%     99.54% |           1      0.46%    100.00% (Unspecified)
board.cache_hierarchy.ruby_system.L2Cache_Controller.L1_UPGRADE::total          219                       (Unspecified)
board.cache_hierarchy.ruby_system.L2Cache_Controller.L1_PUTX |          24      4.13%      4.13% |          56      9.64%     13.77% |          31      5.34%     19.10% |          43      7.40%     26.51% |          62     10.67%     37.18% |          63     10.84%     48.02% |          46      7.92%     55.94% |          47      8.09%     64.03% |          47      8.09%     72.12% |          31      5.34%     77.45% |          31      5.34%     82.79% |          11      1.89%     84.68% |          27      4.65%     89.33% |          39      6.71%     96.04% |          15      2.58%     98.62% |           8      1.38%    100.00% (Unspecified)
board.cache_hierarchy.ruby_system.L2Cache_Controller.L1_PUTX::total          581                       (Unspecified)
board.cache_hierarchy.ruby_system.L2Cache_Controller.Mem_Data |          62      5.20%      5.20% |          76      6.37%     11.57% |          80      6.71%     18.27% |          82      6.87%     25.15% |          96      8.05%     33.19% |          97      8.13%     41.32% |          75      6.29%     47.61% |          71      5.95%     53.56% |          75      6.29%     59.85% |          79      6.62%     66.47% |          63      5.28%     71.75% |          47      3.94%     75.69% |          68      5.70%     81.39% |          82      6.87%     88.26% |          70      5.87%     94.13% |          70      5.87%    100.00% (Unspecified)
board.cache_hierarchy.ruby_system.L2Cache_Controller.Mem_Data::total         1193                       (Unspecified)
board.cache_hierarchy.ruby_system.L2Cache_Controller.WB_Data |          23      4.17%      4.17% |          79     14.31%     18.48% |          60     10.87%     29.35% |          33      5.98%     35.33% |          27      4.89%     40.22% |          59     10.69%     50.91% |          20      3.62%     54.53% |          21      3.80%     58.33% |          20      3.62%     61.96% |          38      6.88%     68.84% |          50      9.06%     77.90% |          19      3.44%     81.34% |          26      4.71%     86.05% |          18      3.26%     89.31% |          34      6.16%     95.47% |          25      4.53%    100.00% (Unspecified)
board.cache_hierarchy.ruby_system.L2Cache_Controller.WB_Data::total          552                       (Unspecified)
board.cache_hierarchy.ruby_system.L2Cache_Controller.WB_Data_clean |         108      5.92%      5.92% |         112      6.14%     12.07% |         114      6.25%     18.32% |         126      6.91%     25.23% |         114      6.25%     31.49% |         118      6.47%     37.96% |         116      6.36%     44.32% |         113      6.20%     50.52% |         113      6.20%     56.72% |         112      6.14%     62.86% |         114      6.25%     69.12% |         109      5.98%     75.10% |         116      6.36%     81.46% |         116      6.36%     87.82% |         115      6.31%     94.13% |         107      5.87%    100.00% (Unspecified)
board.cache_hierarchy.ruby_system.L2Cache_Controller.WB_Data_clean::total         1823                       (Unspecified)
board.cache_hierarchy.ruby_system.L2Cache_Controller.Unblock |         131      5.52%      5.52% |         191      8.04%     13.56% |         174      7.33%     20.88% |         159      6.69%     27.58% |         141      5.94%     33.52% |         177      7.45%     40.97% |         136      5.73%     46.69% |         134      5.64%     52.34% |         133      5.60%     57.94% |         150      6.32%     64.25% |         164      6.91%     71.16% |         128      5.39%     76.55% |         142      5.98%     82.53% |         134      5.64%     88.17% |         149      6.27%     94.44% |         132      5.56%    100.00% (Unspecified)
board.cache_hierarchy.ruby_system.L2Cache_Controller.Unblock::total         2375                       (Unspecified)
board.cache_hierarchy.ruby_system.L2Cache_Controller.Exclusive_Unblock |       23308     68.21%     68.21% |        7963     23.30%     91.52% |         214      0.63%     92.14% |         212      0.62%     92.77% |         255      0.75%     93.51% |         287      0.84%     94.35% |         221      0.65%     95.00% |         220      0.64%     95.64% |         218      0.64%     96.28% |         183      0.54%     96.82% |         208      0.61%     97.42% |         147      0.43%     97.85% |         200      0.59%     98.44% |         192      0.56%     99.00% |         182      0.53%     99.53% |         159      0.47%    100.00% (Unspecified)
board.cache_hierarchy.ruby_system.L2Cache_Controller.Exclusive_Unblock::total        34169                       (Unspecified)
board.cache_hierarchy.ruby_system.L2Cache_Controller.NP.L1_GET_INSTR |          25      6.51%      6.51% |          25      6.51%     13.02% |          26      6.77%     19.79% |          28      7.29%     27.08% |          26      6.77%     33.85% |          26      6.77%     40.62% |          19      4.95%     45.57% |          17      4.43%     50.00% |          20      5.21%     55.21% |          25      6.51%     61.72% |          24      6.25%     67.97% |          23      5.99%     73.96% |          28      7.29%     81.25% |          28      7.29%     88.54% |          22      5.73%     94.27% |          22      5.73%    100.00% (Unspecified)
board.cache_hierarchy.ruby_system.L2Cache_Controller.NP.L1_GET_INSTR::total          384                       (Unspecified)
board.cache_hierarchy.ruby_system.L2Cache_Controller.NP.L1_GETS |           0      0.00%      0.00% |           2      3.23%      3.23% |           0      0.00%      3.23% |           0      0.00%      3.23% |          16     25.81%     29.03% |           1      1.61%     30.65% |           2      3.23%     33.87% |           0      0.00%     33.87% |           1      1.61%     35.48% |          17     27.42%     62.90% |           2      3.23%     66.13% |           1      1.61%     67.74% |           1      1.61%     69.35% |           0      0.00%     69.35% |           2      3.23%     72.58% |          17     27.42%    100.00% (Unspecified)
board.cache_hierarchy.ruby_system.L2Cache_Controller.NP.L1_GETS::total           62                       (Unspecified)
board.cache_hierarchy.ruby_system.L2Cache_Controller.NP.L1_GETX |          37      4.95%      4.95% |          49      6.56%     11.51% |          54      7.23%     18.74% |          54      7.23%     25.97% |          54      7.23%     33.20% |          70      9.37%     42.57% |          54      7.23%     49.80% |          54      7.23%     57.03% |          54      7.23%     64.26% |          37      4.95%     69.21% |          37      4.95%     74.16% |          23      3.08%     77.24% |          39      5.22%     82.46% |          54      7.23%     89.69% |          46      6.16%     95.85% |          31      4.15%    100.00% (Unspecified)
board.cache_hierarchy.ruby_system.L2Cache_Controller.NP.L1_GETX::total          747                       (Unspecified)
board.cache_hierarchy.ruby_system.L2Cache_Controller.SS.L1_GET_INSTR |         115      4.33%      4.33% |         145      5.47%      9.80% |         195      7.35%     17.15% |         222      8.37%     25.52% |         190      7.16%     32.68% |         154      5.80%     38.48% |         187      7.05%     45.53% |         137      5.16%     50.70% |         183      6.90%     57.60% |         179      6.75%     64.34% |         171      6.45%     70.79% |         186      7.01%     77.80% |         189      7.12%     84.92% |         176      6.63%     91.56% |         133      5.01%     96.57% |          91      3.43%    100.00% (Unspecified)
board.cache_hierarchy.ruby_system.L2Cache_Controller.SS.L1_GET_INSTR::total         2653                       (Unspecified)
board.cache_hierarchy.ruby_system.L2Cache_Controller.SS.L1_GETS |        1812      6.20%      6.20% |        1814      6.21%     12.42% |        1827      6.26%     18.67% |        1837      6.29%     24.96% |        1826      6.25%     31.22% |        1804      6.18%     37.39% |        1833      6.28%     43.67% |        1812      6.20%     49.88% |        1811      6.20%     56.08% |        1842      6.31%     62.38% |        1849      6.33%     68.72% |        1812      6.20%     74.92% |        1821      6.24%     81.16% |        1822      6.24%     87.40% |        1838      6.29%     93.69% |        1843      6.31%    100.00% (Unspecified)
board.cache_hierarchy.ruby_system.L2Cache_Controller.SS.L1_GETS::total        29203                       (Unspecified)
board.cache_hierarchy.ruby_system.L2Cache_Controller.SS.L1_GETX |           0      0.00%      0.00% |           1     16.67%     16.67% |           0      0.00%     16.67% |           0      0.00%     16.67% |           2     33.33%     50.00% |           0      0.00%     50.00% |           0      0.00%     50.00% |           0      0.00%     50.00% |           0      0.00%     50.00% |           0      0.00%     50.00% |           3     50.00%    100.00% |           0      0.00%    100.00% |           0      0.00%    100.00% |           0      0.00%    100.00% |           0      0.00%    100.00% |           0      0.00%    100.00% (Unspecified)
board.cache_hierarchy.ruby_system.L2Cache_Controller.SS.L1_GETX::total            6                       (Unspecified)
board.cache_hierarchy.ruby_system.L2Cache_Controller.SS.L1_UPGRADE |           1      0.46%      0.46% |          55     25.35%     25.81% |          27     12.44%     38.25% |          13      5.99%     44.24% |           9      4.15%     48.39% |          33     15.21%     63.59% |           5      2.30%     65.90% |           5      2.30%     68.20% |           2      0.92%     69.12% |           2      0.92%     70.05% |          31     14.29%     84.33% |           0      0.00%     84.33% |          13      5.99%     90.32% |           3      1.38%     91.71% |          17      7.83%     99.54% |           1      0.46%    100.00% (Unspecified)
board.cache_hierarchy.ruby_system.L2Cache_Controller.SS.L1_UPGRADE::total          217                       (Unspecified)
board.cache_hierarchy.ruby_system.L2Cache_Controller.M.L1_GETS |         125      6.15%      6.15% |         140      6.89%     13.03% |         132      6.49%     19.53% |         143      7.03%     26.56% |         136      6.69%     33.25% |         139      6.84%     40.09% |         137      6.74%     46.83% |         133      6.54%     53.37% |         133      6.54%     59.91% |         115      5.66%     65.57% |         118      5.80%     71.37% |         112      5.51%     76.88% |         120      5.90%     82.78% |         124      6.10%     88.88% |         117      5.76%     94.64% |         109      5.36%    100.00% (Unspecified)
board.cache_hierarchy.ruby_system.L2Cache_Controller.M.L1_GETS::total         2033                       (Unspecified)
board.cache_hierarchy.ruby_system.L2Cache_Controller.M.L1_GETX |           2      3.03%      3.03% |           6      9.09%     12.12% |           1      1.52%     13.64% |           2      3.03%     16.67% |          20     30.30%     46.97% |          17     25.76%     72.73% |           1      1.52%     74.24% |           1      1.52%     75.76% |           1      1.52%     77.27% |           1      1.52%     78.79% |           1      1.52%     80.30% |           0      0.00%     80.30% |          12     18.18%     98.48% |           0      0.00%     98.48% |           0      0.00%     98.48% |           1      1.52%    100.00% (Unspecified)
board.cache_hierarchy.ruby_system.L2Cache_Controller.M.L1_GETX::total           66                       (Unspecified)
board.cache_hierarchy.ruby_system.L2Cache_Controller.MT.L1_GETS |         131      5.52%      5.52% |         191      8.04%     13.56% |         174      7.33%     20.88% |         159      6.69%     27.58% |         141      5.94%     33.52% |         177      7.45%     40.97% |         136      5.73%     46.69% |         134      5.64%     52.34% |         133      5.60%     57.94% |         150      6.32%     64.25% |         164      6.91%     71.16% |         128      5.39%     76.55% |         142      5.98%     82.53% |         134      5.64%     88.17% |         149      6.27%     94.44% |         132      5.56%    100.00% (Unspecified)
board.cache_hierarchy.ruby_system.L2Cache_Controller.MT.L1_GETS::total         2375                       (Unspecified)
board.cache_hierarchy.ruby_system.L2Cache_Controller.MT.L1_GETX |       23143     74.56%     74.56% |        7710     24.84%     99.40% |           0      0.00%     99.40% |           0      0.00%     99.40% |          18      0.06%     99.46% |          27      0.09%     99.55% |          22      0.07%     99.62% |          27      0.09%     99.71% |          27      0.09%     99.79% |          11      0.04%     99.83% |          16      0.05%     99.88% |          11      0.04%     99.92% |          15      0.05%     99.96% |          11      0.04%    100.00% |           0      0.00%    100.00% |           0      0.00%    100.00% (Unspecified)
board.cache_hierarchy.ruby_system.L2Cache_Controller.MT.L1_GETX::total        31038                       (Unspecified)
board.cache_hierarchy.ruby_system.L2Cache_Controller.MT.L1_PUTX |          24      4.13%      4.13% |          56      9.64%     13.77% |          31      5.34%     19.10% |          43      7.40%     26.51% |          62     10.67%     37.18% |          63     10.84%     48.02% |          46      7.92%     55.94% |          47      8.09%     64.03% |          47      8.09%     72.12% |          31      5.34%     77.45% |          31      5.34%     82.79% |          11      1.89%     84.68% |          27      4.65%     89.33% |          39      6.71%     96.04% |          15      2.58%     98.62% |           8      1.38%    100.00% (Unspecified)
board.cache_hierarchy.ruby_system.L2Cache_Controller.MT.L1_PUTX::total          581                       (Unspecified)
board.cache_hierarchy.ruby_system.L2Cache_Controller.ISS.Mem_Data |           0      0.00%      0.00% |           2      3.23%      3.23% |           0      0.00%      3.23% |           0      0.00%      3.23% |          16     25.81%     29.03% |           1      1.61%     30.65% |           2      3.23%     33.87% |           0      0.00%     33.87% |           1      1.61%     35.48% |          17     27.42%     62.90% |           2      3.23%     66.13% |           1      1.61%     67.74% |           1      1.61%     69.35% |           0      0.00%     69.35% |           2      3.23%     72.58% |          17     27.42%    100.00% (Unspecified)
board.cache_hierarchy.ruby_system.L2Cache_Controller.ISS.Mem_Data::total           62                       (Unspecified)
board.cache_hierarchy.ruby_system.L2Cache_Controller.IS.Mem_Data |          25      6.51%      6.51% |          25      6.51%     13.02% |          26      6.77%     19.79% |          28      7.29%     27.08% |          26      6.77%     33.85% |          26      6.77%     40.62% |          19      4.95%     45.57% |          17      4.43%     50.00% |          20      5.21%     55.21% |          25      6.51%     61.72% |          24      6.25%     67.97% |          23      5.99%     73.96% |          28      7.29%     81.25% |          28      7.29%     88.54% |          22      5.73%     94.27% |          22      5.73%    100.00% (Unspecified)
board.cache_hierarchy.ruby_system.L2Cache_Controller.IS.Mem_Data::total          384                       (Unspecified)
board.cache_hierarchy.ruby_system.L2Cache_Controller.IM.Mem_Data |          37      4.95%      4.95% |          49      6.56%     11.51% |          54      7.23%     18.74% |          54      7.23%     25.97% |          54      7.23%     33.20% |          70      9.37%     42.57% |          54      7.23%     49.80% |          54      7.23%     57.03% |          54      7.23%     64.26% |          37      4.95%     69.21% |          37      4.95%     74.16% |          23      3.08%     77.24% |          39      5.22%     82.46% |          54      7.23%     89.69% |          46      6.16%     95.85% |          31      4.15%    100.00% (Unspecified)
board.cache_hierarchy.ruby_system.L2Cache_Controller.IM.Mem_Data::total          747                       (Unspecified)
board.cache_hierarchy.ruby_system.L2Cache_Controller.SS_MB.L1_GETS |           0      0.00%      0.00% |           1     20.00%     20.00% |           0      0.00%     20.00% |           0      0.00%     20.00% |           0      0.00%     20.00% |           0      0.00%     20.00% |           0      0.00%     20.00% |           0      0.00%     20.00% |           0      0.00%     20.00% |           0      0.00%     20.00% |           4     80.00%    100.00% |           0      0.00%    100.00% |           0      0.00%    100.00% |           0      0.00%    100.00% |           0      0.00%    100.00% |           0      0.00%    100.00% (Unspecified)
board.cache_hierarchy.ruby_system.L2Cache_Controller.SS_MB.L1_GETS::total            5                       (Unspecified)
board.cache_hierarchy.ruby_system.L2Cache_Controller.SS_MB.L1_GETX |           0      0.00%      0.00% |           1     50.00%     50.00% |           0      0.00%     50.00% |           0      0.00%     50.00% |           0      0.00%     50.00% |           0      0.00%     50.00% |           0      0.00%     50.00% |           0      0.00%     50.00% |           0      0.00%     50.00% |           0      0.00%     50.00% |           1     50.00%    100.00% |           0      0.00%    100.00% |           0      0.00%    100.00% |           0      0.00%    100.00% |           0      0.00%    100.00% |           0      0.00%    100.00% (Unspecified)
board.cache_hierarchy.ruby_system.L2Cache_Controller.SS_MB.L1_GETX::total            2                       (Unspecified)
board.cache_hierarchy.ruby_system.L2Cache_Controller.SS_MB.Exclusive_Unblock |           1      0.45%      0.45% |          56     25.11%     25.56% |          27     12.11%     37.67% |          13      5.83%     43.50% |          11      4.93%     48.43% |          33     14.80%     63.23% |           5      2.24%     65.47% |           5      2.24%     67.71% |           2      0.90%     68.61% |           2      0.90%     69.51% |          34     15.25%     84.75% |           0      0.00%     84.75% |          13      5.83%     90.58% |           3      1.35%     91.93% |          17      7.62%     99.55% |           1      0.45%    100.00% (Unspecified)
board.cache_hierarchy.ruby_system.L2Cache_Controller.SS_MB.Exclusive_Unblock::total          223                       (Unspecified)
board.cache_hierarchy.ruby_system.L2Cache_Controller.MT_MB.L1_GETS |           0      0.00%      0.00% |           0      0.00%      0.00% |           0      0.00%      0.00% |           0      0.00%      0.00% |           0      0.00%      0.00% |           0      0.00%      0.00% |           0      0.00%      0.00% |           0      0.00%      0.00% |           0      0.00%      0.00% |           0      0.00%      0.00% |           4    100.00%    100.00% |           0      0.00%    100.00% |           0      0.00%    100.00% |           0      0.00%    100.00% |           0      0.00%    100.00% |           0      0.00%    100.00% (Unspecified)
board.cache_hierarchy.ruby_system.L2Cache_Controller.MT_MB.L1_GETS::total            4                       (Unspecified)
board.cache_hierarchy.ruby_system.L2Cache_Controller.MT_MB.L1_GETX |      225516     93.71%     93.71% |       15148      6.29%    100.00% |           0      0.00%    100.00% |           0      0.00%    100.00% |           0      0.00%    100.00% |           0      0.00%    100.00% |           0      0.00%    100.00% |           0      0.00%    100.00% |           0      0.00%    100.00% |           0      0.00%    100.00% |           0      0.00%    100.00% |           0      0.00%    100.00% |           0      0.00%    100.00% |           0      0.00%    100.00% |           0      0.00%    100.00% |           0      0.00%    100.00% (Unspecified)
board.cache_hierarchy.ruby_system.L2Cache_Controller.MT_MB.L1_GETX::total       240664                       (Unspecified)
board.cache_hierarchy.ruby_system.L2Cache_Controller.MT_MB.Exclusive_Unblock |       23307     68.66%     68.66% |        7907     23.29%     91.95% |         187      0.55%     92.50% |         199      0.59%     93.09% |         244      0.72%     93.81% |         254      0.75%     94.56% |         216      0.64%     95.19% |         215      0.63%     95.83% |         216      0.64%     96.46% |         181      0.53%     97.00% |         174      0.51%     97.51% |         147      0.43%     97.94% |         187      0.55%     98.49% |         189      0.56%     99.05% |         165      0.49%     99.53% |         158      0.47%    100.00% (Unspecified)
board.cache_hierarchy.ruby_system.L2Cache_Controller.MT_MB.Exclusive_Unblock::total        33946                       (Unspecified)
board.cache_hierarchy.ruby_system.L2Cache_Controller.MT_IIB.L1_GETS |           1     20.00%     20.00% |           0      0.00%     20.00% |           0      0.00%     20.00% |           0      0.00%     20.00% |           0      0.00%     20.00% |           0      0.00%     20.00% |           0      0.00%     20.00% |           0      0.00%     20.00% |           0      0.00%     20.00% |           0      0.00%     20.00% |           4     80.00%    100.00% |           0      0.00%    100.00% |           0      0.00%    100.00% |           0      0.00%    100.00% |           0      0.00%    100.00% |           0      0.00%    100.00% (Unspecified)
board.cache_hierarchy.ruby_system.L2Cache_Controller.MT_IIB.L1_GETS::total            5                       (Unspecified)
board.cache_hierarchy.ruby_system.L2Cache_Controller.MT_IIB.L1_GETX |           0      0.00%      0.00% |           2     66.67%     66.67% |           0      0.00%     66.67% |           0      0.00%     66.67% |           0      0.00%     66.67% |           0      0.00%     66.67% |           0      0.00%     66.67% |           0      0.00%     66.67% |           0      0.00%     66.67% |           0      0.00%     66.67% |           1     33.33%    100.00% |           0      0.00%    100.00% |           0      0.00%    100.00% |           0      0.00%    100.00% |           0      0.00%    100.00% |           0      0.00%    100.00% (Unspecified)
board.cache_hierarchy.ruby_system.L2Cache_Controller.MT_IIB.L1_GETX::total            3                       (Unspecified)
board.cache_hierarchy.ruby_system.L2Cache_Controller.MT_IIB.WB_Data |          22      4.18%      4.18% |          61     11.60%     15.78% |          59     11.22%     27.00% |          33      6.27%     33.27% |          26      4.94%     38.21% |          59     11.22%     49.43% |          19      3.61%     53.04% |          20      3.80%     56.84% |          20      3.80%     60.65% |          38      7.22%     67.87% |          48      9.13%     77.00% |          19      3.61%     80.61% |          26      4.94%     85.55% |          18      3.42%     88.97% |          34      6.46%     95.44% |          24      4.56%    100.00% (Unspecified)
board.cache_hierarchy.ruby_system.L2Cache_Controller.MT_IIB.WB_Data::total          526                       (Unspecified)
board.cache_hierarchy.ruby_system.L2Cache_Controller.MT_IIB.WB_Data_clean |         108      5.97%      5.97% |         111      6.14%     12.11% |         114      6.30%     18.41% |         115      6.36%     24.77% |         114      6.30%     31.07% |         118      6.52%     37.59% |         116      6.41%     44.00% |         113      6.25%     50.25% |         113      6.25%     56.50% |         112      6.19%     62.69% |         114      6.30%     68.99% |         109      6.03%     75.01% |         116      6.41%     81.43% |         115      6.36%     87.78% |         114      6.30%     94.09% |         107      5.91%    100.00% (Unspecified)
board.cache_hierarchy.ruby_system.L2Cache_Controller.MT_IIB.WB_Data_clean::total         1809                       (Unspecified)
board.cache_hierarchy.ruby_system.L2Cache_Controller.MT_IIB.Unblock |           1      2.50%      2.50% |          19     47.50%     50.00% |           1      2.50%     52.50% |          11     27.50%     80.00% |           1      2.50%     82.50% |           0      0.00%     82.50% |           1      2.50%     85.00% |           1      2.50%     87.50% |           0      0.00%     87.50% |           0      0.00%     87.50% |           2      5.00%     92.50% |           0      0.00%     92.50% |           0      0.00%     92.50% |           1      2.50%     95.00% |           1      2.50%     97.50% |           1      2.50%    100.00% (Unspecified)
board.cache_hierarchy.ruby_system.L2Cache_Controller.MT_IIB.Unblock::total           40                       (Unspecified)
board.cache_hierarchy.ruby_system.L2Cache_Controller.MT_IB.WB_Data |           1      3.85%      3.85% |          18     69.23%     73.08% |           1      3.85%     76.92% |           0      0.00%     76.92% |           1      3.85%     80.77% |           0      0.00%     80.77% |           1      3.85%     84.62% |           1      3.85%     88.46% |           0      0.00%     88.46% |           0      0.00%     88.46% |           2      7.69%     96.15% |           0      0.00%     96.15% |           0      0.00%     96.15% |           0      0.00%     96.15% |           0      0.00%     96.15% |           1      3.85%    100.00% (Unspecified)
board.cache_hierarchy.ruby_system.L2Cache_Controller.MT_IB.WB_Data::total           26                       (Unspecified)
board.cache_hierarchy.ruby_system.L2Cache_Controller.MT_IB.WB_Data_clean |           0      0.00%      0.00% |           1      7.14%      7.14% |           0      0.00%      7.14% |          11     78.57%     85.71% |           0      0.00%     85.71% |           0      0.00%     85.71% |           0      0.00%     85.71% |           0      0.00%     85.71% |           0      0.00%     85.71% |           0      0.00%     85.71% |           0      0.00%     85.71% |           0      0.00%     85.71% |           0      0.00%     85.71% |           1      7.14%     92.86% |           1      7.14%    100.00% |           0      0.00%    100.00% (Unspecified)
board.cache_hierarchy.ruby_system.L2Cache_Controller.MT_IB.WB_Data_clean::total           14                       (Unspecified)
board.cache_hierarchy.ruby_system.L2Cache_Controller.MT_SB.L1_GETS |           0      0.00%      0.00% |           0      0.00%      0.00% |           0      0.00%      0.00% |           0      0.00%      0.00% |           0      0.00%      0.00% |           0      0.00%      0.00% |           0      0.00%      0.00% |           0      0.00%      0.00% |           0      0.00%      0.00% |           0      0.00%      0.00% |           3     15.00%     15.00% |           0      0.00%     15.00% |           0      0.00%     15.00% |           1      5.00%     20.00% |          15     75.00%     95.00% |           1      5.00%    100.00% (Unspecified)
board.cache_hierarchy.ruby_system.L2Cache_Controller.MT_SB.L1_GETS::total           20                       (Unspecified)
board.cache_hierarchy.ruby_system.L2Cache_Controller.MT_SB.L1_UPGRADE |           0      0.00%      0.00% |           0      0.00%      0.00% |           0      0.00%      0.00% |           0      0.00%      0.00% |           0      0.00%      0.00% |           0      0.00%      0.00% |           0      0.00%      0.00% |           0      0.00%      0.00% |           0      0.00%      0.00% |           0      0.00%      0.00% |           2    100.00%    100.00% |           0      0.00%    100.00% |           0      0.00%    100.00% |           0      0.00%    100.00% |           0      0.00%    100.00% |           0      0.00%    100.00% (Unspecified)
board.cache_hierarchy.ruby_system.L2Cache_Controller.MT_SB.L1_UPGRADE::total            2                       (Unspecified)
[...]
board.processor.cores9.core.decode.branchMispred          115                       # Number of times decode detected a branch misprediction (Count)
board.processor.cores9.core.decode.decodedInsts       296773                       # Number of instructions handled by decode (Count)
board.processor.cores9.core.decode.squashedInsts          589                       # Number of squashed instructions handled by decode (Count)
board.processor.cores9.core.executeStats0.numInsts       182273                       # Number of executed instructions (Count)
board.processor.cores9.core.executeStats0.numNop            0                       # Number of nop insts executed (Count)
board.processor.cores9.core.executeStats0.numBranches        10902                       # Number of branches executed (Count)
board.processor.cores9.core.executeStats0.numLoadInsts        45872                       # Number of load instructions executed (Count)
board.processor.cores9.core.executeStats0.numStoreInsts        16943                       # Number of stores executed (Count)
board.processor.cores9.core.executeStats0.instRate     0.048336                       # Inst execution rate ((Count/Cycle))
board.processor.cores9.core.executeStats0.numCCRegReads        22814                       # Number of times the CC registers were read (Count)
board.processor.cores9.core.executeStats0.numCCRegWrites        38184                       # Number of times the CC registers were written (Count)
board.processor.cores9.core.executeStats0.numFpRegReads           14                       # Number of times the floating registers were read (Count)
board.processor.cores9.core.executeStats0.numFpRegWrites            8                       # Number of times the floating registers were written (Count)
board.processor.cores9.core.executeStats0.numIntRegReads       238157                       # Number of times the integer registers were read (Count)
board.processor.cores9.core.executeStats0.numIntRegWrites       141445                       # Number of times the integer registers were written (Count)
board.processor.cores9.core.executeStats0.numMemRefs        62815                       # Number of memory refs (Count)
board.processor.cores9.core.executeStats0.numMiscRegReads        86675                       # Number of times the Misc registers were read (Count)
board.processor.cores9.core.executeStats0.numMiscRegWrites            1                       # Number of times the Misc registers were written (Count)
board.processor.cores9.core.executeStats0.numVecAluAccesses            0                       # Number of vector alu accesses (Count)
board.processor.cores9.core.executeStats0.numDiscardedOps            0                       # Number of ops (including micro ops) which were discarded before commit (Count)
board.processor.cores9.core.fetch.predictedBranches        21020                       # Number of branches that fetch has predicted taken (Count)
board.processor.cores9.core.fetch.cycles      3722567                       # Number of cycles fetch has run and was not squashing or blocked (Cycle)
board.processor.cores9.core.fetch.squashCycles         4698                       # Number of cycles fetch has spent squashing (Cycle)
board.processor.cores9.core.fetch.miscStallCycles           90                       # Number of cycles fetch has spent waiting on interrupts, or bad addresses, or out of MSHRs (Cycle)
board.processor.cores9.core.fetch.pendingTrapStallCycles          581                       # Number of stall cycles due to pending traps (Cycle)
board.processor.cores9.core.fetch.cacheLines        29476                       # Number of cache lines fetched (Count)
board.processor.cores9.core.fetch.icacheSquashes           79                       # Number of outstanding Icache misses that were squashed (Count)
board.processor.cores9.core.fetch.nisnDist::samples      3762975                       # Number of instructions fetched each cycle (Total) (Count)
board.processor.cores9.core.fetch.nisnDist::mean     0.096736                       # Number of instructions fetched each cycle (Total) (Count)
board.processor.cores9.core.fetch.nisnDist::stdev     0.818152                       # Number of instructions fetched each cycle (Total) (Count)
board.processor.cores9.core.fetch.nisnDist::underflows            0      0.00%      0.00% # Number of instructions fetched each cycle (Total) (Count)
board.processor.cores9.core.fetch.nisnDist::0      3697998     98.27%     98.27% # Number of instructions fetched each cycle (Total) (Count)
board.processor.cores9.core.fetch.nisnDist::1        12356      0.33%     98.60% # Number of instructions fetched each cycle (Total) (Count)
board.processor.cores9.core.fetch.nisnDist::2         2081      0.06%     98.66% # Number of instructions fetched each cycle (Total) (Count)
board.processor.cores9.core.fetch.nisnDist::3         6228      0.17%     98.82% # Number of instructions fetched each cycle (Total) (Count)
board.processor.cores9.core.fetch.nisnDist::4           70      0.00%     98.82% # Number of instructions fetched each cycle (Total) (Count)
board.processor.cores9.core.fetch.nisnDist::5         2199      0.06%     98.88% # Number of instructions fetched each cycle (Total) (Count)
board.processor.cores9.core.fetch.nisnDist::6         6263      0.17%     99.05% # Number of instructions fetched each cycle (Total) (Count)
board.processor.cores9.core.fetch.nisnDist::7         6278      0.17%     99.22% # Number of instructions fetched each cycle (Total) (Count)
board.processor.cores9.core.fetch.nisnDist::8        29502      0.78%    100.00% # Number of instructions fetched each cycle (Total) (Count)
board.processor.cores9.core.fetch.nisnDist::overflows            0      0.00%    100.00% # Number of instructions fetched each cycle (Total) (Count)
board.processor.cores9.core.fetch.nisnDist::min_value            0                       # Number of instructions fetched each cycle (Total) (Count)
board.processor.cores9.core.fetch.nisnDist::max_value            8                       # Number of instructions fetched each cycle (Total) (Count)
board.processor.cores9.core.fetch.nisnDist::total      3762975                       # Number of instructions fetched each cycle (Total) (Count)
board.processor.cores9.core.fetchStats0.numInsts       248513                       # Number of instructions fetched (thread level) (Count)
board.processor.cores9.core.fetchStats0.numOps            0                       # Number of ops (including micro ops) fetched (thread level) (Count)
board.processor.cores9.core.fetchStats0.fetchRate     0.065902                       # Number of inst fetches per cycle ((Count/Cycle))
board.processor.cores9.core.fetchStats0.numBranches        21606                       # Number of branches fetched (Count)
board.processor.cores9.core.fetchStats0.branchRate     0.005730                       # Number of branch fetches per cycle (Ratio)
board.processor.cores9.core.fetchStats0.icacheStallCycles        37388                       # ICache total stall cycles (Cycle)
board.processor.cores9.core.fetchStats0.numFetchSuspends            0                       # Number of times Execute suspended instruction fetching (Count)
board.processor.cores9.core.iew.idleCycles            0                       # Number of cycles IEW is idle (Cycle)
board.processor.cores9.core.iew.squashCycles         2236                       # Number of cycles IEW is squashing (Cycle)
board.processor.cores9.core.iew.blockCycles      3636439                       # Number of cycles IEW is blocking (Cycle)
board.processor.cores9.core.iew.unblockCycles         6322                       # Number of cycles IEW is unblocking (Cycle)
board.processor.cores9.core.iew.dispatchedInsts       263458                       # Number of instructions dispatched to IQ (Count)
board.processor.cores9.core.iew.dispSquashedInsts            2                       # Number of squashed instructions skipped by dispatch (Count)
board.processor.cores9.core.iew.dispLoadInsts        72729                       # Number of dispatched load instructions (Count)
board.processor.cores9.core.iew.dispStoreInsts        27298                       # Number of dispatched store instructions (Count)
board.processor.cores9.core.iew.dispNonSpecInsts         4128                       # Number of dispatched non-speculative instructions (Count)
board.processor.cores9.core.iew.iqFullEvents         2075                       # Number of times the IQ has become full, causing a stall (Count)
board.processor.cores9.core.iew.lsqFullEvents          145                       # Number of times the LSQ has become full, causing a stall (Count)
board.processor.cores9.core.iew.memOrderViolationEvents         2054                       # Number of memory order violations (Count)
board.processor.cores9.core.iew.predictedTakenIncorrect            8                       # Number of branches that were predicted taken incorrectly (Count)
board.processor.cores9.core.iew.predictedNotTakenIncorrect          173                       # Number of branches that were predicted not taken incorrectly (Count)
board.processor.cores9.core.iew.branchMispredicts          181                       # Number of branch mispredicts detected at execute (Count)
board.processor.cores9.core.iew.instsToCommit       182230                       # Cumulative count of insts sent to commit (Count)
board.processor.cores9.core.iew.writebackCount       182045                       # Cumulative count of insts written-back (Count)
board.processor.cores9.core.iew.producerInst       132934                       # Number of instructions producing a value (Count)
board.processor.cores9.core.iew.consumerInst       233449                       # Number of instructions consuming a value (Count)
board.processor.cores9.core.iew.wbRate       0.048276                       # Insts written-back per cycle ((Count/Cycle))
board.processor.cores9.core.iew.wbFanout     0.569435                       # Average fanout of values written-back ((Count/Count))
board.processor.cores9.core.interrupts.clk_domain.clock         5328                       # Clock period in ticks (Tick)
board.processor.cores9.core.lsq0.forwLoads         4255                       # Number of loads that had data forwarded from stores (Count)
board.processor.cores9.core.lsq0.squashedLoads        43491                       # Number of loads squashed (Count)
board.processor.cores9.core.lsq0.ignoredResponses            1                       # Number of memory responses ignored because the instruction is squashed (Count)
board.processor.cores9.core.lsq0.memOrderViolation         2054                       # Number of memory ordering violations (Count)
board.processor.cores9.core.lsq0.squashedStores        14570                       # Number of stores squashed (Count)
board.processor.cores9.core.lsq0.rescheduledLoads            0                       # Number of loads that were rescheduled (Count)
board.processor.cores9.core.lsq0.blockedByCache            2                       # Number of times an access to memory failed due to the cache being blocked (Count)
board.processor.cores9.core.lsq0.loadToUse::samples        29238                       # Distribution of cycle latency between the first time a load is issued and its completion (Unspecified)
board.processor.cores9.core.lsq0.loadToUse::mean   126.462104                       # Distribution of cycle latency between the first time a load is issued and its completion (Unspecified)
board.processor.cores9.core.lsq0.loadToUse::stdev   436.255610                       # Distribution of cycle latency between the first time a load is issued and its completion (Unspecified)
board.processor.cores9.core.lsq0.loadToUse::0-9        25199     86.19%     86.19% # Distribution of cycle latency between the first time a load is issued and its completion (Unspecified)
board.processor.cores9.core.lsq0.loadToUse::10-19          129      0.44%     86.63% # Distribution of cycle latency between the first time a load is issued and its completion (Unspecified)
board.processor.cores9.core.lsq0.loadToUse::60-69            1      0.00%     86.63% # Distribution of cycle latency between the first time a load is issued and its completion (Unspecified)
board.processor.cores9.core.lsq0.loadToUse::80-89            2      0.01%     86.64% # Distribution of cycle latency between the first time a load is issued and its completion (Unspecified)
board.processor.cores9.core.lsq0.loadToUse::110-119         1927      6.59%     93.23% # Distribution of cycle latency between the first time a load is issued and its completion (Unspecified)
board.processor.cores9.core.lsq0.loadToUse::120-129           35      0.12%     93.35% # Distribution of cycle latency between the first time a load is issued and its completion (Unspecified)
board.processor.cores9.core.lsq0.loadToUse::160-169            1      0.00%     93.35% # Distribution of cycle latency between the first time a load is issued and its completion (Unspecified)
board.processor.cores9.core.lsq0.loadToUse::170-179           11      0.04%     93.39% # Distribution of cycle latency between the first time a load is issued and its completion (Unspecified)
board.processor.cores9.core.lsq0.loadToUse::180-189            1      0.00%     93.39% # Distribution of cycle latency between the first time a load is issued and its completion (Unspecified)
board.processor.cores9.core.lsq0.loadToUse::210-219            7      0.02%     93.42% # Distribution of cycle latency between the first time a load is issued and its completion (Unspecified)
board.processor.cores9.core.lsq0.loadToUse::220-229            1      0.00%     93.42% # Distribution of cycle latency between the first time a load is issued and its completion (Unspecified)
board.processor.cores9.core.lsq0.loadToUse::290-299            1      0.00%     93.42% # Distribution of cycle latency between the first time a load is issued and its completion (Unspecified)
board.processor.cores9.core.lsq0.loadToUse::overflows         1923      6.58%    100.00% # Distribution of cycle latency between the first time a load is issued and its completion (Unspecified)
board.processor.cores9.core.lsq0.loadToUse::min_value            2                       # Distribution of cycle latency between the first time a load is issued and its completion (Unspecified)
board.processor.cores9.core.lsq0.loadToUse::max_value         1802                       # Distribution of cycle latency between the first time a load is issued and its completion (Unspecified)
board.processor.cores9.core.lsq0.loadToUse::total        29238                       # Distribution of cycle latency between the first time a load is issued and its completion (Unspecified)
board.processor.cores9.core.mmu.dtb.rdAccesses        45860                       # TLB accesses on read requests (Count)
board.processor.cores9.core.mmu.dtb.wrAccesses        16943                       # TLB accesses on write requests (Count)
board.processor.cores9.core.mmu.dtb.rdMisses          104                       # TLB misses on read requests (Count)
board.processor.cores9.core.mmu.dtb.wrMisses           16                       # TLB misses on write requests (Count)
board.processor.cores9.core.mmu.dtb.walker.power_state.pwrStateResidencyTicks::UNDEFINED   1638377649                       # Cumulative time (in ticks) in various power states (Tick)
board.processor.cores9.core.mmu.itb.rdAccesses            0                       # TLB accesses on read requests (Count)
board.processor.cores9.core.mmu.itb.wrAccesses        29569                       # TLB accesses on write requests (Count)
board.processor.cores9.core.mmu.itb.rdMisses            0                       # TLB misses on read requests (Count)
board.processor.cores9.core.mmu.itb.wrMisses          149                       # TLB misses on write requests (Count)
board.processor.cores9.core.mmu.itb.walker.power_state.pwrStateResidencyTicks::UNDEFINED   1638377649                       # Cumulative time (in ticks) in various power states (Tick)
board.processor.cores9.core.power_state.pwrStateResidencyTicks::ON   1638377649                       # Cumulative time (in ticks) in various power states (Tick)
board.processor.cores9.core.rename.squashCycles         2236                       # Number of cycles rename is squashing (Cycle)
board.processor.cores9.core.rename.idleCycles        27278                       # Number of cycles rename is idle (Cycle)
board.processor.cores9.core.rename.blockCycles      3671690                       # Number of cycles rename is blocking (Cycle)
board.processor.cores9.core.rename.serializeStallCycles            0                       # count of cycles rename stalled for serializing inst (Cycle)
board.processor.cores9.core.rename.runCycles        36046                       # Number of cycles rename is running (Cycle)
board.processor.cores9.core.rename.unblockCycles        25725                       # Number of cycles rename is unblocking (Cycle)
board.processor.cores9.core.rename.renamedInsts       280137                       # Number of instructions processed by rename (Count)
board.processor.cores9.core.rename.ROBFullEvents           10                       # Number of times rename has blocked due to ROB full (Count)
board.processor.cores9.core.rename.IQFullEvents        20600                       # Number of times rename has blocked due to IQ full (Count)
board.processor.cores9.core.rename.LQFullEvents           64                       # Number of times rename has blocked due to LQ full (Count)
board.processor.cores9.core.rename.SQFullEvents          947                       # Number of times rename has blocked due to SQ full (Count)
board.processor.cores9.core.rename.renamedOperands       373463                       # Number of destination operands rename has renamed (Count)
board.processor.cores9.core.rename.lookups       852543                       # Number of register rename lookups that rename has made (Count)
board.processor.cores9.core.rename.intLookups       400503                       # Number of integer rename lookups (Count)
board.processor.cores9.core.rename.fpLookups           14                       # Number of floating rename lookups (Count)
board.processor.cores9.core.rename.committedMaps       147147                       # Number of HB maps that are committed (Count)
board.processor.cores9.core.rename.undoneMaps       226316                       # Number of HB maps that are undone due to squashing (Count)
board.processor.cores9.core.rename.serializing            0                       # count of serializing insts renamed (Count)
board.processor.cores9.core.rename.tempSerializing            0                       # count of temporary serializing insts renamed (Count)
board.processor.cores9.core.rename.skidInsts        45603                       # count of insts added to the skid buffer (Count)
board.processor.cores9.core.rob.reads         4002970                       # The number of ROB reads (Count)
board.processor.cores9.core.rob.writes         547639                       # The number of ROB writes (Count)
board.processor.cores9.core.thread_0.numInsts        71576                       # Number of Instructions committed (Count)
board.processor.cores9.core.thread_0.numOps       108575                       # Number of Ops committed (Count)
board.processor.cores9.core.thread_0.numMemRefs            0                       # Number of Memory References (Count)
board.workload.inst.arm                             0                       # number of arm instructions executed (Count)
board.workload.inst.quiesce                         0                       # number of quiesce instructions executed (Count)

---------- End Simulation Statistics   ----------
