
---------- Begin Simulation Statistics ----------
simSeconds                                   0.000978                       # Number of seconds simulated (Second)
simTicks                                    977777244                       # Number of ticks simulated (Tick)
finalTick                                  1305742284                       # Number of ticks from beginning of simulation (restored from checkpoints and never reset) (Tick)
simFreq                                  1000000000000                       # The number of ticks per simulated second ((Tick/Second))
hostSeconds                                     55.77                       # Real time elapsed on the host (Second)
hostTickRate                                 17531957                       # The number of ticks simulated per host second (ticks/s) ((Tick/Second))
hostMemory                                    1753472                       # Number of bytes of host memory used (Byte)
simInsts                                      1667319                       # Number of instructions simulated (Count)
simOps                                        2894260                       # Number of ops (including micro ops) simulated (Count)
hostInstRate                                    29896                       # Simulator instruction rate (inst/s) ((Count/Second))
hostOpRate                                      51895                       # Simulator op (including micro ops) rate (op/s) ((Count/Second))
board.cache_hierarchy.ruby_system.delayHistogram::bucket_size         2048                       # delay histogram for all message (Unspecified)
board.cache_hierarchy.ruby_system.delayHistogram::max_bucket        20479                       # delay histogram for all message (Unspecified)
board.cache_hierarchy.ruby_system.delayHistogram::samples        87794                       # delay histogram for all message (Unspecified)
board.cache_hierarchy.ruby_system.delayHistogram::mean  3103.777673                       # delay histogram for all message (Unspecified)
board.cache_hierarchy.ruby_system.delayHistogram::stdev  6640.017163                       # delay histogram for all message (Unspecified)
board.cache_hierarchy.ruby_system.delayHistogram |       71659     81.62%     81.62% |         196      0.22%     81.85% |         190      0.22%     82.06% |         171      0.19%     82.26% |         221      0.25%     82.51% |         240      0.27%     82.78% |         387      0.44%     83.22% |        1508      1.72%     84.94% |       11051     12.59%     97.53% |        2171      2.47%    100.00% # delay histogram for all message (Unspecified)
board.cache_hierarchy.ruby_system.delayHistogram::total        87794                       # delay histogram for all message (Unspecified)
board.cache_hierarchy.ruby_system.m_outstandReqHistSeqr::bucket_size            2                       (Unspecified)
board.cache_hierarchy.ruby_system.m_outstandReqHistSeqr::max_bucket           19                       (Unspecified)
board.cache_hierarchy.ruby_system.m_outstandReqHistSeqr::samples      1103104                       (Unspecified)
board.cache_hierarchy.ruby_system.m_outstandReqHistSeqr::mean     1.175644                       (Unspecified)
board.cache_hierarchy.ruby_system.m_outstandReqHistSeqr::gmean     1.122974                       (Unspecified)
board.cache_hierarchy.ruby_system.m_outstandReqHistSeqr::stdev     0.452256                       (Unspecified)
board.cache_hierarchy.ruby_system.m_outstandReqHistSeqr |      927522     84.08%     84.08% |      171409     15.54%     99.62% |        3659      0.33%     99.95% |         326      0.03%     99.98% |          88      0.01%     99.99% |          32      0.00%     99.99% |          23      0.00%    100.00% |          20      0.00%    100.00% |          25      0.00%    100.00% |           0      0.00%    100.00% (Unspecified)
board.cache_hierarchy.ruby_system.m_outstandReqHistSeqr::total      1103104                       (Unspecified)
board.cache_hierarchy.ruby_system.m_latencyHistSeqr::bucket_size          512                       (Unspecified)
board.cache_hierarchy.ruby_system.m_latencyHistSeqr::max_bucket         5119                       (Unspecified)
board.cache_hierarchy.ruby_system.m_latencyHistSeqr::samples      1103461                       (Unspecified)
board.cache_hierarchy.ruby_system.m_latencyHistSeqr::mean    37.872336                       (Unspecified)
board.cache_hierarchy.ruby_system.m_latencyHistSeqr::gmean     1.158579                       (Unspecified)
board.cache_hierarchy.ruby_system.m_latencyHistSeqr::stdev   295.658091                       (Unspecified)
board.cache_hierarchy.ruby_system.m_latencyHistSeqr |     1087134     98.52%     98.52% |         247      0.02%     98.54% |         359      0.03%     98.58% |         551      0.05%     98.63% |       14502      1.31%     99.94% |         668      0.06%    100.00% |           0      0.00%    100.00% |           0      0.00%    100.00% |           0      0.00%    100.00% |           0      0.00%    100.00% (Unspecified)
board.cache_hierarchy.ruby_system.m_latencyHistSeqr::total      1103461                       (Unspecified)
board.cache_hierarchy.ruby_system.m_hitLatencyHistSeqr::bucket_size          128                       (Unspecified)
board.cache_hierarchy.ruby_system.m_hitLatencyHistSeqr::max_bucket         1279                       (Unspecified)
board.cache_hierarchy.ruby_system.m_hitLatencyHistSeqr::samples      1079892                       (Unspecified)
board.cache_hierarchy.ruby_system.m_hitLatencyHistSeqr::mean     1.004331                       (Unspecified)
board.cache_hierarchy.ruby_system.m_hitLatencyHistSeqr::gmean     1.000288                       (Unspecified)
board.cache_hierarchy.ruby_system.m_hitLatencyHistSeqr::stdev     1.272371                       (Unspecified)
board.cache_hierarchy.ruby_system.m_hitLatencyHistSeqr |     1079879    100.00%    100.00% |           0      0.00%    100.00% |          12      0.00%    100.00% |           0      0.00%    100.00% |           0      0.00%    100.00% |           0      0.00%    100.00% |           1      0.00%    100.00% |           0      0.00%    100.00% |           0      0.00%    100.00% |           0      0.00%    100.00% (Unspecified)
board.cache_hierarchy.ruby_system.m_hitLatencyHistSeqr::total      1079892                       (Unspecified)
board.cache_hierarchy.ruby_system.m_missLatencyHistSeqr::bucket_size          512                       (Unspecified)
board.cache_hierarchy.ruby_system.m_missLatencyHistSeqr::max_bucket         5119                       (Unspecified)
board.cache_hierarchy.ruby_system.m_missLatencyHistSeqr::samples        23569                       (Unspecified)
board.cache_hierarchy.ruby_system.m_missLatencyHistSeqr::mean  1727.102423                       (Unspecified)
board.cache_hierarchy.ruby_system.m_missLatencyHistSeqr::gmean   970.860409                       (Unspecified)
board.cache_hierarchy.ruby_system.m_missLatencyHistSeqr::stdev  1084.784852                       (Unspecified)
board.cache_hierarchy.ruby_system.m_missLatencyHistSeqr |        7243     30.73%     30.73% |         246      1.04%     31.77% |         359      1.52%     33.30% |         551      2.34%     35.64% |       14502     61.53%     97.17% |         668      2.83%    100.00% |           0      0.00%    100.00% |           0      0.00%    100.00% |           0      0.00%    100.00% |           0      0.00%    100.00% (Unspecified)
board.cache_hierarchy.ruby_system.m_missLatencyHistSeqr::total        23569                       (Unspecified)
board.cache_hierarchy.ruby_system.delayVCHist.vnet_0::bucket_size         2048                       # delay histogram for vnet_0 (Unspecified)
board.cache_hierarchy.ruby_system.delayVCHist.vnet_0::max_bucket        20479                       # delay histogram for vnet_0 (Unspecified)
board.cache_hierarchy.ruby_system.delayVCHist.vnet_0::samples        44232                       # delay histogram for vnet_0 (Unspecified)
board.cache_hierarchy.ruby_system.delayVCHist.vnet_0::mean  6160.435861                       # delay histogram for vnet_0 (Unspecified)
board.cache_hierarchy.ruby_system.delayVCHist.vnet_0::stdev  8287.481197                       # delay histogram for vnet_0 (Unspecified)
board.cache_hierarchy.ruby_system.delayVCHist.vnet_0 |       28097     63.52%     63.52% |         196      0.44%     63.97% |         190      0.43%     64.39% |         171      0.39%     64.78% |         221      0.50%     65.28% |         240      0.54%     65.82% |         387      0.87%     66.70% |        1508      3.41%     70.11% |       11051     24.98%     95.09% |        2171      4.91%    100.00% # delay histogram for vnet_0 (Unspecified)
board.cache_hierarchy.ruby_system.delayVCHist.vnet_0::total        44232                       # delay histogram for vnet_0 (Unspecified)
board.cache_hierarchy.ruby_system.delayVCHist.vnet_1::bucket_size            4                       # delay histogram for vnet_1 (Unspecified)
board.cache_hierarchy.ruby_system.delayVCHist.vnet_1::max_bucket           39                       # delay histogram for vnet_1 (Unspecified)
board.cache_hierarchy.ruby_system.delayVCHist.vnet_1::samples        25999                       # delay histogram for vnet_1 (Unspecified)
board.cache_hierarchy.ruby_system.delayVCHist.vnet_1::mean     0.179161                       # delay histogram for vnet_1 (Unspecified)
board.cache_hierarchy.ruby_system.delayVCHist.vnet_1::stdev     1.236069                       # delay histogram for vnet_1 (Unspecified)
board.cache_hierarchy.ruby_system.delayVCHist.vnet_1 |       25410     97.73%     97.73% |         217      0.83%     98.57% |         311      1.20%     99.77% |          18      0.07%     99.83% |          42      0.16%    100.00% |           0      0.00%    100.00% |           1      0.00%    100.00% |           0      0.00%    100.00% |           0      0.00%    100.00% |           0      0.00%    100.00% # delay histogram for vnet_1 (Unspecified)
board.cache_hierarchy.ruby_system.delayVCHist.vnet_1::total        25999                       # delay histogram for vnet_1 (Unspecified)
board.cache_hierarchy.ruby_system.delayVCHist.vnet_2::bucket_size            1                       # delay histogram for vnet_2 (Unspecified)
board.cache_hierarchy.ruby_system.delayVCHist.vnet_2::max_bucket            9                       # delay histogram for vnet_2 (Unspecified)
board.cache_hierarchy.ruby_system.delayVCHist.vnet_2::samples        17563                       # delay histogram for vnet_2 (Unspecified)
board.cache_hierarchy.ruby_system.delayVCHist.vnet_2 |       17563    100.00%    100.00% |           0      0.00%    100.00% |           0      0.00%    100.00% |           0      0.00%    100.00% |           0      0.00%    100.00% |           0      0.00%    100.00% |           0      0.00%    100.00% |           0      0.00%    100.00% |           0      0.00%    100.00% |           0      0.00%    100.00% # delay histogram for vnet_2 (Unspecified)
board.cache_hierarchy.ruby_system.delayVCHist.vnet_2::total        17563                       # delay histogram for vnet_2 (Unspecified)
board.cache_hierarchy.ruby_system.Directory_Controller.Fetch         1233      0.00%      0.00% (Unspecified)
board.cache_hierarchy.ruby_system.Directory_Controller.Memory_Data         1233      0.00%      0.00% (Unspecified)
board.cache_hierarchy.ruby_system.Directory_Controller.I.Fetch         1233      0.00%      0.00% (Unspecified)
board.cache_hierarchy.ruby_system.Directory_Controller.IM.Memory_Data         1233      0.00%      0.00% (Unspecified)
board.cache_hierarchy.ruby_system.L1Cache_Controller.Load |       13250      4.17%      4.17% |       19007      5.99%     10.16% |       19021      5.99%     16.16% |       19006      5.99%     22.14% |       18997      5.99%     28.13% |       19021      5.99%     34.12% |       18997      5.99%     40.11% |       19000      5.99%     46.09% |       19003      5.99%     52.08% |       19019      5.99%     58.07% |       19015      5.99%     64.06% |       18986      5.98%     70.04% |       19032      6.00%     76.04% |       19016      5.99%     82.03% |       19013      5.99%     88.02% |       19009      5.99%     94.01% |       19018      5.99%    100.00% (Unspecified)
board.cache_hierarchy.ruby_system.L1Cache_Controller.Load::total       317410                       (Unspecified)
board.cache_hierarchy.ruby_system.L1Cache_Controller.Ifetch |       20386      4.14%      4.14% |       29421      5.98%     10.12% |       29487      5.99%     16.11% |       29458      5.99%     22.10% |       29445      5.98%     28.08% |       29461      5.99%     34.07% |       29463      5.99%     40.06% |       29439      5.98%     46.04% |       29439      5.98%     52.02% |       29469      5.99%     58.01% |       29529      6.00%     64.01% |       29453      5.99%     70.00% |       29566      6.01%     76.00% |       29542      6.00%     82.01% |       29525      6.00%     88.01% |       29485      5.99%     94.00% |       29535      6.00%    100.00% (Unspecified)
board.cache_hierarchy.ruby_system.L1Cache_Controller.Ifetch::total       492103                       (Unspecified)
board.cache_hierarchy.ruby_system.L1Cache_Controller.Store |       22723      7.73%      7.73% |       16842      5.73%     13.46% |       17134      5.83%     19.29% |       16842      5.73%     25.02% |       16842      5.73%     30.75% |       16842      5.73%     36.48% |       16842      5.73%     42.21% |       16842      5.73%     47.94% |       16842      5.73%     53.67% |       16842      5.73%     59.40% |       17134      5.83%     65.23% |       16842      5.73%     70.95% |       17134      5.83%     76.78% |       17134      5.83%     82.61% |       17134      5.83%     88.44% |       16842      5.73%     94.17% |       17134      5.83%    100.00% (Unspecified)
board.cache_hierarchy.ruby_system.L1Cache_Controller.Store::total       293947                       (Unspecified)
board.cache_hierarchy.ruby_system.L1Cache_Controller.Inv |          69     27.49%     27.49% |           3      1.20%     28.69% |          10      3.98%     32.67% |          11      4.38%     37.05% |          11      4.38%     41.43% |          12      4.78%     46.22% |          10      3.98%     50.20% |          11      4.38%     54.58% |          11      4.38%     58.96% |          13      5.18%     64.14% |          10      3.98%     68.13% |          14      5.58%     73.71% |          13      5.18%     78.88% |          14      5.58%     84.46% |          13      5.18%     89.64% |          13      5.18%     94.82% |          13      5.18%    100.00% (Unspecified)
board.cache_hierarchy.ruby_system.L1Cache_Controller.Inv::total          251                       (Unspecified)
board.cache_hierarchy.ruby_system.L1Cache_Controller.L1_Replacement |         856     99.53%     99.53% |           0      0.00%     99.53% |           0      0.00%     99.53% |           0      0.00%     99.53% |           0      0.00%     99.53% |           2      0.23%     99.77% |           0      0.00%     99.77% |           0      0.00%     99.77% |           0      0.00%     99.77% |           2      0.23%    100.00% |           0      0.00%    100.00% |           0      0.00%    100.00% |           0      0.00%    100.00% |           0      0.00%    100.00% |           0      0.00%    100.00% |           0      0.00%    100.00% |           0      0.00%    100.00% (Unspecified)
board.cache_hierarchy.ruby_system.L1Cache_Controller.L1_Replacement::total          860                       (Unspecified)
board.cache_hierarchy.ruby_system.L1Cache_Controller.Fwd_GETX |          37      0.22%      0.22% |        1189      7.11%      7.33% |        1037      6.20%     13.53% |        1037      6.20%     19.73% |        1037      6.20%     25.93% |        1037      6.20%     32.13% |        1037      6.20%     38.33% |        1037      6.20%     44.53% |        1037      6.20%     50.73% |        1037      6.20%     56.93% |        1027      6.14%     63.07% |        1037      6.20%     69.27% |        1026      6.13%     75.40% |        1027      6.14%     81.54% |        1026      6.13%     87.67% |        1025      6.13%     93.80% |        1037      6.20%    100.00% (Unspecified)
board.cache_hierarchy.ruby_system.L1Cache_Controller.Fwd_GETX::total        16727                       (Unspecified)
board.cache_hierarchy.ruby_system.L1Cache_Controller.Fwd_GETS |         399     68.21%     68.21% |          12      2.05%     70.26% |          16      2.74%     72.99% |          12      2.05%     75.04% |          12      2.05%     77.09% |          12      2.05%     79.15% |          13      2.22%     81.37% |          12      2.05%     83.42% |          12      2.05%     85.47% |          13      2.22%     87.69% |           9      1.54%     89.23% |          13      2.22%     91.45% |          11      1.88%     93.33% |           9      1.54%     94.87% |           9      1.54%     96.41% |           7      1.20%     97.61% |          14      2.39%    100.00% (Unspecified)
board.cache_hierarchy.ruby_system.L1Cache_Controller.Fwd_GETS::total          585                       (Unspecified)
board.cache_hierarchy.ruby_system.L1Cache_Controller.Data |           0      0.00%      0.00% |           0      0.00%      0.00% |           0      0.00%      0.00% |           0      0.00%      0.00% |           0      0.00%      0.00% |           0      0.00%      0.00% |           0      0.00%      0.00% |           0      0.00%      0.00% |           0      0.00%      0.00% |           0      0.00%      0.00% |           2     33.33%     33.33% |           0      0.00%     33.33% |           1     16.67%     50.00% |           1     16.67%     66.67% |           1     16.67%     83.33% |           0      0.00%     83.33% |           1     16.67%    100.00% (Unspecified)
board.cache_hierarchy.ruby_system.L1Cache_Controller.Data::total            6                       (Unspecified)
board.cache_hierarchy.ruby_system.L1Cache_Controller.Data_Exclusive |          70      3.60%      3.60% |         138      7.09%     10.69% |         136      6.99%     17.68% |         133      6.83%     24.51% |         133      6.83%     31.35% |         133      6.83%     38.18% |         134      6.89%     45.07% |         133      6.83%     51.90% |         133      6.83%     58.74% |         133      6.83%     65.57% |         133      6.83%     72.40% |         132      6.78%     79.19% |         133      6.83%     86.02% |         125      6.42%     92.45% |          74      3.80%     96.25% |          34      1.75%     98.00% |          39      2.00%    100.00% (Unspecified)
board.cache_hierarchy.ruby_system.L1Cache_Controller.Data_Exclusive::total         1946                       (Unspecified)
board.cache_hierarchy.ruby_system.L1Cache_Controller.DataS_fromL1 |          37      6.32%      6.32% |          19      3.25%      9.57% |          21      3.59%     13.16% |          21      3.59%     16.75% |          18      3.08%     19.83% |          19      3.25%     23.08% |          17      2.91%     25.98% |          18      3.08%     29.06% |          18      3.08%     32.14% |          18      3.08%     35.21% |          14      2.39%     37.61% |          19      3.25%     40.85% |          17      2.91%     43.76% |          24      4.10%     47.86% |          74     12.65%     60.51% |         120     20.51%     81.03% |         111     18.97%    100.00% (Unspecified)
board.cache_hierarchy.ruby_system.L1Cache_Controller.DataS_fromL1::total          585                       (Unspecified)
board.cache_hierarchy.ruby_system.L1Cache_Controller.Data_all_Acks |         766      3.68%      3.68% |        1381      6.63%     10.31% |        1266      6.08%     16.39% |        1215      5.84%     22.23% |        1219      5.86%     28.08% |        1227      5.89%     33.98% |        1222      5.87%     39.85% |        1220      5.86%     45.71% |        1220      5.86%     51.57% |        1226      5.89%     57.46% |        1280      6.15%     63.61% |        1220      5.86%     69.47% |        1282      6.16%     75.62% |        1286      6.18%     81.80% |        1286      6.18%     87.98% |        1224      5.88%     93.86% |        1279      6.14%    100.00% (Unspecified)
board.cache_hierarchy.ruby_system.L1Cache_Controller.Data_all_Acks::total        20819                       (Unspecified)
board.cache_hierarchy.ruby_system.L1Cache_Controller.Ack |          39     15.92%     15.92% |          13      5.31%     21.22% |           8      3.27%     24.49% |          12      4.90%     29.39% |          12      4.90%     34.29% |          12      4.90%     39.18% |          12      4.90%     44.08% |          12      4.90%     48.98% |          12      4.90%     53.88% |          13      5.31%     59.18% |          21      8.57%     67.76% |          15      6.12%     73.88% |          14      5.71%     79.59% |          13      5.31%     84.90% |          12      4.90%     89.80% |          12      4.90%     94.69% |          13      5.31%    100.00% (Unspecified)
board.cache_hierarchy.ruby_system.L1Cache_Controller.Ack::total          245                       (Unspecified)
board.cache_hierarchy.ruby_system.L1Cache_Controller.Ack_all |          34     15.53%     15.53% |          13      5.94%     21.46% |           8      3.65%     25.11% |          12      5.48%     30.59% |          12      5.48%     36.07% |          12      5.48%     41.55% |          12      5.48%     47.03% |          12      5.48%     52.51% |          12      5.48%     57.99% |          13      5.94%     63.93% |          11      5.02%     68.95% |          13      5.94%     74.89% |          11      5.02%     79.91% |          11      5.02%     84.93% |          11      5.02%     89.95% |          11      5.02%     94.98% |          11      5.02%    100.00% (Unspecified)
board.cache_hierarchy.ruby_system.L1Cache_Controller.Ack_all::total          219                       (Unspecified)
board.cache_hierarchy.ruby_system.L1Cache_Controller.WB_Ack |         361    100.00%    100.00% |           0      0.00%    100.00% |           0      0.00%    100.00% |           0      0.00%    100.00% |           0      0.00%    100.00% |           0      0.00%    100.00% |           0      0.00%    100.00% |           0      0.00%    100.00% |           0      0.00%    100.00% |           0      0.00%    100.00% |           0      0.00%    100.00% |           0      0.00%    100.00% |           0      0.00%    100.00% |           0      0.00%    100.00% |           0      0.00%    100.00% |           0      0.00%    100.00% |           0      0.00%    100.00% (Unspecified)
board.cache_hierarchy.ruby_system.L1Cache_Controller.WB_Ack::total          361                       (Unspecified)
board.cache_hierarchy.ruby_system.L1Cache_Controller.NP.Load |         127      4.68%      4.68% |         163      6.01%     10.69% |         158      5.83%     16.52% |         163      6.01%     22.53% |         163      6.01%     28.54% |         164      6.05%     34.59% |         163      6.01%     40.60% |         163      6.01%     46.61% |         163      6.01%     52.62% |         164      6.05%     58.67% |         159      5.86%     64.53% |         162      5.97%     70.50% |         159      5.86%     76.36% |         160      5.90%     82.26% |         159      5.86%     88.13% |         163      6.01%     94.14% |         159      5.86%    100.00% (Unspecified)
board.cache_hierarchy.ruby_system.L1Cache_Controller.NP.Load::total         2712                       (Unspecified)
board.cache_hierarchy.ruby_system.L1Cache_Controller.NP.Ifetch |         334     11.00%     11.00% |         159      5.24%     16.23% |         182      5.99%     22.23% |         157      5.17%     27.40% |         158      5.20%     32.60% |         165      5.43%     38.03% |         161      5.30%     43.33% |         159      5.24%     48.57% |         159      5.24%     53.80% |         163      5.37%     59.17% |         184      6.06%     65.23% |         158      5.20%     70.43% |         184      6.06%     76.49% |         185      6.09%     82.58% |         185      6.09%     88.67% |         160      5.27%     93.94% |         184      6.06%    100.00% (Unspecified)
board.cache_hierarchy.ruby_system.L1Cache_Controller.NP.Ifetch::total         3037                       (Unspecified)
board.cache_hierarchy.ruby_system.L1Cache_Controller.NP.Store |         395     38.88%     38.88% |          27      2.66%     41.54% |          60      5.91%     47.44% |          26      2.56%     50.00% |          26      2.56%     52.56% |          26      2.56%     55.12% |          26      2.56%     57.68% |          26      2.56%     60.24% |          26      2.56%     62.80% |          26      2.56%     65.35% |          60      5.91%     71.26% |          27      2.66%     73.92% |          60      5.91%     79.82% |          59      5.81%     85.63% |          60      5.91%     91.54% |          26      2.56%     94.09% |          60      5.91%    100.00% (Unspecified)
board.cache_hierarchy.ruby_system.L1Cache_Controller.NP.Store::total         1016                       (Unspecified)
board.cache_hierarchy.ruby_system.L1Cache_Controller.NP.Inv |          10    100.00%    100.00% |           0      0.00%    100.00% |           0      0.00%    100.00% |           0      0.00%    100.00% |           0      0.00%    100.00% |           0      0.00%    100.00% |           0      0.00%    100.00% |           0      0.00%    100.00% |           0      0.00%    100.00% |           0      0.00%    100.00% |           0      0.00%    100.00% |           0      0.00%    100.00% |           0      0.00%    100.00% |           0      0.00%    100.00% |           0      0.00%    100.00% |           0      0.00%    100.00% |           0      0.00%    100.00% (Unspecified)
board.cache_hierarchy.ruby_system.L1Cache_Controller.NP.Inv::total           10                       (Unspecified)
board.cache_hierarchy.ruby_system.L1Cache_Controller.I.Load |          15     31.25%     31.25% |           1      2.08%     33.33% |           0      0.00%     33.33% |           0      0.00%     33.33% |           0      0.00%     33.33% |           1      2.08%     35.42% |           0      0.00%     35.42% |           0      0.00%     35.42% |           0      0.00%     35.42% |           1      2.08%     37.50% |           2      4.17%     41.67% |           1      2.08%     43.75% |           6     12.50%     56.25% |           7     14.58%     70.83% |           7     14.58%     85.42% |           4      8.33%     93.75% |           3      6.25%    100.00% (Unspecified)
board.cache_hierarchy.ruby_system.L1Cache_Controller.I.Load::total           48                       (Unspecified)
board.cache_hierarchy.ruby_system.L1Cache_Controller.I.Store |           1      0.01%      0.01% |        1188      7.18%      7.19% |        1023      6.18%     13.37% |        1023      6.18%     19.56% |        1023      6.18%     25.74% |        1023      6.18%     31.92% |        1023      6.18%     38.11% |        1023      6.18%     44.29% |        1023      6.18%     50.48% |        1023      6.18%     56.66% |        1024      6.19%     62.85% |        1023      6.18%     69.04% |        1024      6.19%     75.23% |        1025      6.20%     81.42% |        1024      6.19%     87.61% |        1025      6.20%     93.81% |        1024      6.19%    100.00% (Unspecified)
board.cache_hierarchy.ruby_system.L1Cache_Controller.I.Store::total        16542                       (Unspecified)
board.cache_hierarchy.ruby_system.L1Cache_Controller.I.L1_Replacement |          58    100.00%    100.00% |           0      0.00%    100.00% |           0      0.00%    100.00% |           0      0.00%    100.00% |           0      0.00%    100.00% |           0      0.00%    100.00% |           0      0.00%    100.00% |           0      0.00%    100.00% |           0      0.00%    100.00% |           0      0.00%    100.00% |           0      0.00%    100.00% |           0      0.00%    100.00% |           0      0.00%    100.00% |           0      0.00%    100.00% |           0      0.00%    100.00% |           0      0.00%    100.00% |           0      0.00%    100.00% (Unspecified)
board.cache_hierarchy.ruby_system.L1Cache_Controller.I.L1_Replacement::total           58                       (Unspecified)
board.cache_hierarchy.ruby_system.L1Cache_Controller.S.Load |         262      5.00%      5.00% |          65      1.24%      6.24% |          72      1.37%      7.61% |          65      1.24%      8.85% |          64      1.22%     10.08% |          72      1.37%     11.45% |          65      1.24%     12.69% |          67      1.28%     13.97% |          72      1.37%     15.34% |          78      1.49%     16.83% |          82      1.56%     18.40% |          80      1.53%     19.92% |          72      1.37%     21.30% |         176      3.36%     24.66% |         936     17.86%     42.52% |        1542     29.43%     71.95% |        1470     28.05%    100.00% (Unspecified)
board.cache_hierarchy.ruby_system.L1Cache_Controller.S.Load::total         5240                       (Unspecified)
board.cache_hierarchy.ruby_system.L1Cache_Controller.S.Ifetch |       20052      4.10%      4.10% |       29262      5.98%     10.08% |       29305      5.99%     16.08% |       29301      5.99%     22.07% |       29287      5.99%     28.05% |       29296      5.99%     34.05% |       29302      5.99%     40.04% |       29280      5.99%     46.02% |       29280      5.99%     52.01% |       29306      5.99%     58.00% |       29345      6.00%     64.00% |       29295      5.99%     69.99% |       29382      6.01%     76.00% |       29357      6.00%     82.00% |       29340      6.00%     88.00% |       29325      6.00%     94.00% |       29351      6.00%    100.00% (Unspecified)
board.cache_hierarchy.ruby_system.L1Cache_Controller.S.Ifetch::total       489066                       (Unspecified)
board.cache_hierarchy.ruby_system.L1Cache_Controller.S.Store |          34     15.96%     15.96% |          13      6.10%     22.07% |           8      3.76%     25.82% |          12      5.63%     31.46% |          12      5.63%     37.09% |          12      5.63%     42.72% |          12      5.63%     48.36% |          12      5.63%     53.99% |          12      5.63%     59.62% |          13      6.10%     65.73% |           9      4.23%     69.95% |          13      6.10%     76.06% |          10      4.69%     80.75% |          10      4.69%     85.45% |          10      4.69%     90.14% |          11      5.16%     95.31% |          10      4.69%    100.00% (Unspecified)
board.cache_hierarchy.ruby_system.L1Cache_Controller.S.Store::total          213                       (Unspecified)
board.cache_hierarchy.ruby_system.L1Cache_Controller.S.Inv |          59     24.58%     24.58% |           3      1.25%     25.83% |          10      4.17%     30.00% |          11      4.58%     34.58% |          11      4.58%     39.17% |          12      5.00%     44.17% |          10      4.17%     48.33% |          11      4.58%     52.92% |          11      4.58%     57.50% |          13      5.42%     62.92% |          10      4.17%     67.08% |          14      5.83%     72.92% |          12      5.00%     77.92% |          14      5.83%     83.75% |          13      5.42%     89.17% |          13      5.42%     94.58% |          13      5.42%    100.00% (Unspecified)
board.cache_hierarchy.ruby_system.L1Cache_Controller.S.Inv::total          240                       (Unspecified)
board.cache_hierarchy.ruby_system.L1Cache_Controller.S.L1_Replacement |         437     99.09%     99.09% |           0      0.00%     99.09% |           0      0.00%     99.09% |           0      0.00%     99.09% |           0      0.00%     99.09% |           2      0.45%     99.55% |           0      0.00%     99.55% |           0      0.00%     99.55% |           0      0.00%     99.55% |           2      0.45%    100.00% |           0      0.00%    100.00% |           0      0.00%    100.00% |           0      0.00%    100.00% |           0      0.00%    100.00% |           0      0.00%    100.00% |           0      0.00%    100.00% |           0      0.00%    100.00% (Unspecified)
board.cache_hierarchy.ruby_system.L1Cache_Controller.S.L1_Replacement::total          441                       (Unspecified)
board.cache_hierarchy.ruby_system.L1Cache_Controller.E.Load |        1585      5.58%      5.58% |        1916      6.74%     12.32% |        1916      6.74%     19.06% |        1916      6.74%     25.80% |        1916      6.74%     32.55% |        1916      6.74%     39.29% |        1920      6.76%     46.05% |        1916      6.74%     52.79% |        1916      6.74%     59.53% |        1916      6.74%     66.27% |        1916      6.74%     73.02% |        1916      6.74%     79.76% |        1916      6.74%     86.50% |        1811      6.37%     92.87% |        1050      3.69%     96.57% |         450      1.58%     98.15% |         525      1.85%    100.00% (Unspecified)
board.cache_hierarchy.ruby_system.L1Cache_Controller.E.Load::total        28417                       (Unspecified)
board.cache_hierarchy.ruby_system.L1Cache_Controller.E.Store |          16     53.33%     53.33% |           0      0.00%     53.33% |           1      3.33%     56.67% |           1      3.33%     60.00% |           1      3.33%     63.33% |           1      3.33%     66.67% |           1      3.33%     70.00% |           1      3.33%     73.33% |           1      3.33%     76.67% |           1      3.33%     80.00% |           1      3.33%     83.33% |           0      0.00%     83.33% |           1      3.33%     86.67% |           1      3.33%     90.00% |           1      3.33%     93.33% |           1      3.33%     96.67% |           1      3.33%    100.00% (Unspecified)
board.cache_hierarchy.ruby_system.L1Cache_Controller.E.Store::total           30                       (Unspecified)
board.cache_hierarchy.ruby_system.L1Cache_Controller.E.L1_Replacement |          11    100.00%    100.00% |           0      0.00%    100.00% |           0      0.00%    100.00% |           0      0.00%    100.00% |           0      0.00%    100.00% |           0      0.00%    100.00% |           0      0.00%    100.00% |           0      0.00%    100.00% |           0      0.00%    100.00% |           0      0.00%    100.00% |           0      0.00%    100.00% |           0      0.00%    100.00% |           0      0.00%    100.00% |           0      0.00%    100.00% |           0      0.00%    100.00% |           0      0.00%    100.00% |           0      0.00%    100.00% (Unspecified)
board.cache_hierarchy.ruby_system.L1Cache_Controller.E.L1_Replacement::total           11                       (Unspecified)
board.cache_hierarchy.ruby_system.L1Cache_Controller.E.Fwd_GETS |           6     15.38%     15.38% |           6     15.38%     30.77% |           5     12.82%     43.59% |           2      5.13%     48.72% |           2      5.13%     53.85% |           2      5.13%     58.97% |           3      7.69%     66.67% |           2      5.13%     71.79% |           2      5.13%     76.92% |           2      5.13%     82.05% |           2      5.13%     87.18% |           2      5.13%     92.31% |           2      5.13%     97.44% |           1      2.56%    100.00% |           0      0.00%    100.00% |           0      0.00%    100.00% |           0      0.00%    100.00% (Unspecified)
board.cache_hierarchy.ruby_system.L1Cache_Controller.E.Fwd_GETS::total           39                       (Unspecified)
board.cache_hierarchy.ruby_system.L1Cache_Controller.M.Load |       11261      4.01%      4.01% |       16862      6.00%     10.01% |       16875      6.01%     16.01% |       16862      6.00%     22.01% |       16854      6.00%     28.01% |       16868      6.00%     34.02% |       16849      6.00%     40.01% |       16854      6.00%     46.01% |       16852      6.00%     52.01% |       16860      6.00%     58.01% |       16856      6.00%     64.01% |       16827      5.99%     69.99% |       16879      6.01%     76.00% |       16862      6.00%     82.00% |       16861      6.00%     88.00% |       16850      6.00%     94.00% |       16861      6.00%    100.00% (Unspecified)
board.cache_hierarchy.ruby_system.L1Cache_Controller.M.Load::total       280993                       (Unspecified)
board.cache_hierarchy.ruby_system.L1Cache_Controller.M.Store |       22277      8.07%      8.07% |       15614      5.65%     13.72% |       16042      5.81%     19.53% |       15780      5.71%     25.24% |       15780      5.71%     30.96% |       15780      5.71%     36.67% |       15780      5.71%     42.39% |       15780      5.71%     48.10% |       15780      5.71%     53.82% |       15779      5.71%     59.53% |       16040      5.81%     65.34% |       15779      5.71%     71.05% |       16039      5.81%     76.86% |       16039      5.81%     82.67% |       16039      5.81%     88.48% |       15779      5.71%     94.19% |       16039      5.81%    100.00% (Unspecified)
board.cache_hierarchy.ruby_system.L1Cache_Controller.M.Store::total       276146                       (Unspecified)
board.cache_hierarchy.ruby_system.L1Cache_Controller.M.L1_Replacement |         350    100.00%    100.00% |           0      0.00%    100.00% |           0      0.00%    100.00% |           0      0.00%    100.00% |           0      0.00%    100.00% |           0      0.00%    100.00% |           0      0.00%    100.00% |           0      0.00%    100.00% |           0      0.00%    100.00% |           0      0.00%    100.00% |           0      0.00%    100.00% |           0      0.00%    100.00% |           0      0.00%    100.00% |           0      0.00%    100.00% |           0      0.00%    100.00% |           0      0.00%    100.00% |           0      0.00%    100.00% (Unspecified)
board.cache_hierarchy.ruby_system.L1Cache_Controller.M.L1_Replacement::total          350                       (Unspecified)
board.cache_hierarchy.ruby_system.L1Cache_Controller.M.Fwd_GETX |          37      0.22%      0.22% |        1189      7.11%      7.33% |        1037      6.20%     13.53% |        1037      6.20%     19.73% |        1037      6.20%     25.93% |        1037      6.20%     32.13% |        1037      6.20%     38.33% |        1037      6.20%     44.53% |        1037      6.20%     50.73% |        1037      6.20%     56.93% |        1027      6.14%     63.07% |        1037      6.20%     69.27% |        1026      6.13%     75.40% |        1027      6.14%     81.54% |        1026      6.13%     87.67% |        1025      6.13%     93.80% |        1037      6.20%    100.00% (Unspecified)
board.cache_hierarchy.ruby_system.L1Cache_Controller.M.Fwd_GETX::total        16727                       (Unspecified)
board.cache_hierarchy.ruby_system.L1Cache_Controller.M.Fwd_GETS |         393     71.98%     71.98% |           6      1.10%     73.08% |          11      2.01%     75.09% |          10      1.83%     76.92% |          10      1.83%     78.75% |          10      1.83%     80.59% |          10      1.83%     82.42% |          10      1.83%     84.25% |          10      1.83%     86.08% |          11      2.01%     88.10% |           7      1.28%     89.38% |          11      2.01%     91.39% |           9      1.65%     93.04% |           8      1.47%     94.51% |           9      1.65%     96.15% |           7      1.28%     97.44% |          14      2.56%    100.00% (Unspecified)
board.cache_hierarchy.ruby_system.L1Cache_Controller.M.Fwd_GETS::total          546                       (Unspecified)
board.cache_hierarchy.ruby_system.L1Cache_Controller.IS.Inv |           0      0.00%      0.00% |           0      0.00%      0.00% |           0      0.00%      0.00% |           0      0.00%      0.00% |           0      0.00%      0.00% |           0      0.00%      0.00% |           0      0.00%      0.00% |           0      0.00%      0.00% |           0      0.00%      0.00% |           0      0.00%      0.00% |           0      0.00%      0.00% |           0      0.00%      0.00% |           1    100.00%    100.00% |           0      0.00%    100.00% |           0      0.00%    100.00% |           0      0.00%    100.00% |           0      0.00%    100.00% (Unspecified)
board.cache_hierarchy.ruby_system.L1Cache_Controller.IS.Inv::total            1                       (Unspecified)
board.cache_hierarchy.ruby_system.L1Cache_Controller.IS.Data_Exclusive |          70      3.60%      3.60% |         138      7.09%     10.69% |         136      6.99%     17.68% |         133      6.83%     24.51% |         133      6.83%     31.35% |         133      6.83%     38.18% |         134      6.89%     45.07% |         133      6.83%     51.90% |         133      6.83%     58.74% |         133      6.83%     65.57% |         133      6.83%     72.40% |         132      6.78%     79.19% |         133      6.83%     86.02% |         125      6.42%     92.45% |          74      3.80%     96.25% |          34      1.75%     98.00% |          39      2.00%    100.00% (Unspecified)
board.cache_hierarchy.ruby_system.L1Cache_Controller.IS.Data_Exclusive::total         1946                       (Unspecified)
board.cache_hierarchy.ruby_system.L1Cache_Controller.IS.DataS_fromL1 |          37      6.32%      6.32% |          19      3.25%      9.57% |          21      3.59%     13.16% |          21      3.59%     16.75% |          18      3.08%     19.83% |          19      3.25%     23.08% |          17      2.91%     25.98% |          18      3.08%     29.06% |          18      3.08%     32.14% |          18      3.08%     35.21% |          14      2.39%     37.61% |          19      3.25%     40.85% |          17      2.91%     43.76% |          24      4.10%     47.86% |          74     12.65%     60.51% |         120     20.51%     81.03% |         111     18.97%    100.00% (Unspecified)
board.cache_hierarchy.ruby_system.L1Cache_Controller.IS.DataS_fromL1::total          585                       (Unspecified)
board.cache_hierarchy.ruby_system.L1Cache_Controller.IS.Data_all_Acks |         370     11.33%     11.33% |         166      5.08%     16.41% |         183      5.60%     22.01% |         166      5.08%     27.10% |         170      5.21%     32.30% |         178      5.45%     37.75% |         173      5.30%     43.05% |         171      5.24%     48.29% |         171      5.24%     53.52% |         177      5.42%     58.94% |         198      6.06%     65.00% |         170      5.21%     70.21% |         198      6.06%     76.27% |         203      6.22%     82.49% |         203      6.22%     88.70% |         173      5.30%     94.00% |         196      6.00%    100.00% (Unspecified)
board.cache_hierarchy.ruby_system.L1Cache_Controller.IS.Data_all_Acks::total         3266                       (Unspecified)
board.cache_hierarchy.ruby_system.L1Cache_Controller.IM.Data |           0      0.00%      0.00% |           0      0.00%      0.00% |           0      0.00%      0.00% |           0      0.00%      0.00% |           0      0.00%      0.00% |           0      0.00%      0.00% |           0      0.00%      0.00% |           0      0.00%      0.00% |           0      0.00%      0.00% |           0      0.00%      0.00% |           2     33.33%     33.33% |           0      0.00%     33.33% |           1     16.67%     50.00% |           1     16.67%     66.67% |           1     16.67%     83.33% |           0      0.00%     83.33% |           1     16.67%    100.00% (Unspecified)
board.cache_hierarchy.ruby_system.L1Cache_Controller.IM.Data::total            6                       (Unspecified)
board.cache_hierarchy.ruby_system.L1Cache_Controller.IM.Data_all_Acks |         396      2.26%      2.26% |        1215      6.92%      9.18% |        1083      6.17%     15.35% |        1049      5.98%     21.33% |        1049      5.98%     27.30% |        1049      5.98%     33.28% |        1049      5.98%     39.25% |        1049      5.98%     45.23% |        1049      5.98%     51.21% |        1049      5.98%     57.18% |        1082      6.16%     63.35% |        1050      5.98%     69.33% |        1083      6.17%     75.50% |        1083      6.17%     81.67% |        1083      6.17%     87.84% |        1051      5.99%     93.83% |        1083      6.17%    100.00% (Unspecified)
board.cache_hierarchy.ruby_system.L1Cache_Controller.IM.Data_all_Acks::total        17552                       (Unspecified)
board.cache_hierarchy.ruby_system.L1Cache_Controller.SM.Ack |          39     15.92%     15.92% |          13      5.31%     21.22% |           8      3.27%     24.49% |          12      4.90%     29.39% |          12      4.90%     34.29% |          12      4.90%     39.18% |          12      4.90%     44.08% |          12      4.90%     48.98% |          12      4.90%     53.88% |          13      5.31%     59.18% |          21      8.57%     67.76% |          15      6.12%     73.88% |          14      5.71%     79.59% |          13      5.31%     84.90% |          12      4.90%     89.80% |          12      4.90%     94.69% |          13      5.31%    100.00% (Unspecified)
board.cache_hierarchy.ruby_system.L1Cache_Controller.SM.Ack::total          245                       (Unspecified)
board.cache_hierarchy.ruby_system.L1Cache_Controller.SM.Ack_all |          34     15.53%     15.53% |          13      5.94%     21.46% |           8      3.65%     25.11% |          12      5.48%     30.59% |          12      5.48%     36.07% |          12      5.48%     41.55% |          12      5.48%     47.03% |          12      5.48%     52.51% |          12      5.48%     57.99% |          13      5.94%     63.93% |          11      5.02%     68.95% |          13      5.94%     74.89% |          11      5.02%     79.91% |          11      5.02%     84.93% |          11      5.02%     89.95% |          11      5.02%     94.98% |          11      5.02%    100.00% (Unspecified)
board.cache_hierarchy.ruby_system.L1Cache_Controller.SM.Ack_all::total          219                       (Unspecified)
board.cache_hierarchy.ruby_system.L1Cache_Controller.IS_I.Data_all_Acks |           0      0.00%      0.00% |           0      0.00%      0.00% |           0      0.00%      0.00% |           0      0.00%      0.00% |           0      0.00%      0.00% |           0      0.00%      0.00% |           0      0.00%      0.00% |           0      0.00%      0.00% |           0      0.00%      0.00% |           0      0.00%      0.00% |           0      0.00%      0.00% |           0      0.00%      0.00% |           1    100.00%    100.00% |           0      0.00%    100.00% |           0      0.00%    100.00% |           0      0.00%    100.00% |           0      0.00%    100.00% (Unspecified)
board.cache_hierarchy.ruby_system.L1Cache_Controller.IS_I.Data_all_Acks::total            1                       (Unspecified)
board.cache_hierarchy.ruby_system.L1Cache_Controller.M_I.WB_Ack |         361    100.00%    100.00% |           0      0.00%    100.00% |           0      0.00%    100.00% |           0      0.00%    100.00% |           0      0.00%    100.00% |           0      0.00%    100.00% |           0      0.00%    100.00% |           0      0.00%    100.00% |           0      0.00%    100.00% |           0      0.00%    100.00% |           0      0.00%    100.00% |           0      0.00%    100.00% |           0      0.00%    100.00% |           0      0.00%    100.00% |           0      0.00%    100.00% |           0      0.00%    100.00% |           0      0.00%    100.00% (Unspecified)
board.cache_hierarchy.ruby_system.L1Cache_Controller.M_I.WB_Ack::total          361                       (Unspecified)
board.cache_hierarchy.ruby_system.L2Cache_Controller.L1_GET_INSTR |         140      4.61%      4.61% |         168      5.53%     10.14% |         221      7.27%     17.41% |         251      8.26%     25.67% |         217      7.14%     32.82% |         180      5.92%     38.74% |         207      6.81%     45.56% |         155      5.10%     50.66% |         220      7.24%     57.90% |         219      7.21%     65.11% |         211      6.95%     72.05% |         208      6.85%     78.90% |         200      6.58%     85.48% |         175      5.76%     91.24% |         153      5.04%     96.28% |         113      3.72%    100.00% (Unspecified)
board.cache_hierarchy.ruby_system.L2Cache_Controller.L1_GET_INSTR::total         3038                       (Unspecified)
board.cache_hierarchy.ruby_system.L2Cache_Controller.L1_GETS |         147      5.32%      5.32% |         195      7.06%     12.38% |         192      6.95%     19.33% |         200      7.24%     26.57% |         181      6.55%     33.12% |         184      6.66%     39.78% |         175      6.33%     46.11% |         140      5.07%     51.18% |         137      4.96%     56.13% |         191      6.91%     63.05% |         194      7.02%     70.07% |         133      4.81%     74.88% |         163      5.90%     80.78% |         152      5.50%     86.28% |         198      7.17%     93.45% |         181      6.55%    100.00% (Unspecified)
board.cache_hierarchy.ruby_system.L2Cache_Controller.L1_GETS::total         2763                       (Unspecified)
board.cache_hierarchy.ruby_system.L2Cache_Controller.L1_GETX |      250045     99.62%     99.62% |          52      0.02%     99.64% |          58      0.02%     99.66% |          59      0.02%     99.69% |          94      0.04%     99.72% |         100      0.04%     99.76% |          78      0.03%     99.79% |          84      0.03%     99.83% |          84      0.03%     99.86% |          51      0.02%     99.88% |          58      0.02%     99.90% |          36      0.01%     99.92% |          68      0.03%     99.95% |          67      0.03%     99.97% |          36      0.01%     99.99% |          34      0.01%    100.00% (Unspecified)
board.cache_hierarchy.ruby_system.L2Cache_Controller.L1_GETX::total       251004                       (Unspecified)
board.cache_hierarchy.ruby_system.L2Cache_Controller.L1_UPGRADE |           1      0.47%      0.47% |          58     26.98%     27.44% |          25     11.63%     39.07% |          12      5.58%     44.65% |          11      5.12%     49.77% |          33     15.35%     65.12% |           6      2.79%     67.91% |           5      2.33%     70.23% |           2      0.93%     71.16% |           2      0.93%     72.09% |          27     12.56%     84.65% |           0      0.00%     84.65% |          12      5.58%     90.23% |           3      1.40%     91.63% |          17      7.91%     99.53% |           1      0.47%    100.00% (Unspecified)
board.cache_hierarchy.ruby_system.L2Cache_Controller.L1_UPGRADE::total          215                       (Unspecified)
board.cache_hierarchy.ruby_system.L2Cache_Controller.L1_PUTX |           8      2.22%      2.22% |          27      7.48%      9.70% |          15      4.16%     13.85% |          27      7.48%     21.33% |          46     12.74%     34.07% |          31      8.59%     42.66% |          30      8.31%     50.97% |          15      4.16%     55.12% |          15      4.16%     59.28% |          15      4.16%     63.43% |          31      8.59%     72.02% |          11      3.05%     75.07% |          28      7.76%     82.83% |          39     10.80%     93.63% |          15      4.16%     97.78% |           8      2.22%    100.00% (Unspecified)
board.cache_hierarchy.ruby_system.L2Cache_Controller.L1_PUTX::total          361                       (Unspecified)
board.cache_hierarchy.ruby_system.L2Cache_Controller.Mem_Data |          65      5.27%      5.27% |          78      6.33%     11.60% |          83      6.73%     18.33% |          85      6.89%     25.22% |          99      8.03%     33.25% |         101      8.19%     41.44% |          78      6.33%     47.77% |          74      6.00%     53.77% |          77      6.24%     60.02% |          83      6.73%     66.75% |          66      5.35%     72.10% |          48      3.89%     75.99% |          70      5.68%     81.67% |          83      6.73%     88.40% |          70      5.68%     94.08% |          73      5.92%    100.00% (Unspecified)
board.cache_hierarchy.ruby_system.L2Cache_Controller.Mem_Data::total         1233                       (Unspecified)
board.cache_hierarchy.ruby_system.L2Cache_Controller.WB_Data |          23      4.21%      4.21% |          77     14.10%     18.32% |          58     10.62%     28.94% |          32      5.86%     34.80% |          29      5.31%     40.11% |          59     10.81%     50.92% |          21      3.85%     54.76% |          21      3.85%     58.61% |          20      3.66%     62.27% |          38      6.96%     69.23% |          45      8.24%     77.47% |          19      3.48%     80.95% |          27      4.95%     85.90% |          18      3.30%     89.19% |          34      6.23%     95.42% |          25      4.58%    100.00% (Unspecified)
board.cache_hierarchy.ruby_system.L2Cache_Controller.WB_Data::total          546                       (Unspecified)
board.cache_hierarchy.ruby_system.L2Cache_Controller.WB_Data_clean |          12     30.77%     30.77% |           0      0.00%     30.77% |           1      2.56%     33.33% |          13     33.33%     66.67% |           1      2.56%     69.23% |           1      2.56%     71.79% |           1      2.56%     74.36% |           0      0.00%     74.36% |           0      0.00%     74.36% |           1      2.56%     76.92% |           2      5.13%     82.05% |           0      0.00%     82.05% |           1      2.56%     84.62% |           1      2.56%     87.18% |           3      7.69%     94.87% |           2      5.13%    100.00% (Unspecified)
board.cache_hierarchy.ruby_system.L2Cache_Controller.WB_Data_clean::total           39                       (Unspecified)
board.cache_hierarchy.ruby_system.L2Cache_Controller.Unblock |          35      5.98%      5.98% |          77     13.16%     19.15% |          59     10.09%     29.23% |          45      7.69%     36.92% |          30      5.13%     42.05% |          60     10.26%     52.31% |          22      3.76%     56.07% |          21      3.59%     59.66% |          20      3.42%     63.08% |          39      6.67%     69.74% |          47      8.03%     77.78% |          19      3.25%     81.03% |          28      4.79%     85.81% |          19      3.25%     89.06% |          37      6.32%     95.38% |          27      4.62%    100.00% (Unspecified)
board.cache_hierarchy.ruby_system.L2Cache_Controller.Unblock::total          585                       (Unspecified)
board.cache_hierarchy.ruby_system.L2Cache_Controller.Exclusive_Unblock |       16710     84.75%     84.75% |         226      1.15%     85.90% |         199      1.01%     86.90% |         198      1.00%     87.91% |         241      1.22%     89.13% |         257      1.30%     90.43% |         207      1.05%     91.48% |         206      1.04%     92.53% |         203      1.03%     93.56% |         185      0.94%     94.50% |         202      1.02%     95.52% |         149      0.76%     96.28% |         200      1.01%     97.29% |         189      0.96%     98.25% |         184      0.93%     99.18% |         161      0.82%    100.00% (Unspecified)
board.cache_hierarchy.ruby_system.L2Cache_Controller.Exclusive_Unblock::total        19717                       (Unspecified)
board.cache_hierarchy.ruby_system.L2Cache_Controller.NP.L1_GET_INSTR |          25      6.60%      6.60% |          25      6.60%     13.19% |          26      6.86%     20.05% |          28      7.39%     27.44% |          26      6.86%     34.30% |          26      6.86%     41.16% |          19      5.01%     46.17% |          17      4.49%     50.66% |          20      5.28%     55.94% |          26      6.86%     62.80% |          24      6.33%     69.13% |          22      5.80%     74.93% |          27      7.12%     82.06% |          26      6.86%     88.92% |          20      5.28%     94.20% |          22      5.80%    100.00% (Unspecified)
board.cache_hierarchy.ruby_system.L2Cache_Controller.NP.L1_GET_INSTR::total          379                       (Unspecified)
board.cache_hierarchy.ruby_system.L2Cache_Controller.NP.L1_GETS |           0      0.00%      0.00% |           2      2.74%      2.74% |           0      0.00%      2.74% |           0      0.00%      2.74% |          16     21.92%     24.66% |           1      1.37%     26.03% |           2      2.74%     28.77% |           0      0.00%     28.77% |           0      0.00%     28.77% |          17     23.29%     52.05% |           2      2.74%     54.79% |           1      1.37%     56.16% |           1      1.37%     57.53% |           0      0.00%     57.53% |          14     19.18%     76.71% |          17     23.29%    100.00% (Unspecified)
board.cache_hierarchy.ruby_system.L2Cache_Controller.NP.L1_GETS::total           73                       (Unspecified)
board.cache_hierarchy.ruby_system.L2Cache_Controller.NP.L1_GETX |          40      5.12%      5.12% |          51      6.53%     11.65% |          57      7.30%     18.95% |          57      7.30%     26.25% |          57      7.30%     33.55% |          74      9.48%     43.02% |          57      7.30%     50.32% |          57      7.30%     57.62% |          57      7.30%     64.92% |          40      5.12%     70.04% |          40      5.12%     75.16% |          25      3.20%     78.36% |          42      5.38%     83.74% |          57      7.30%     91.04% |          36      4.61%     95.65% |          34      4.35%    100.00% (Unspecified)
board.cache_hierarchy.ruby_system.L2Cache_Controller.NP.L1_GETX::total          781                       (Unspecified)
board.cache_hierarchy.ruby_system.L2Cache_Controller.SS.L1_GET_INSTR |         115      4.32%      4.32% |         143      5.38%      9.70% |         195      7.33%     17.04% |         223      8.39%     25.42% |         191      7.18%     32.61% |         154      5.79%     38.40% |         188      7.07%     45.47% |         138      5.19%     50.66% |         200      7.52%     58.18% |         193      7.26%     65.44% |         187      7.03%     72.47% |         186      7.00%     79.47% |         173      6.51%     85.97% |         149      5.60%     91.58% |         133      5.00%     96.58% |          91      3.42%    100.00% (Unspecified)
board.cache_hierarchy.ruby_system.L2Cache_Controller.SS.L1_GET_INSTR::total         2659                       (Unspecified)
board.cache_hierarchy.ruby_system.L2Cache_Controller.SS.L1_GETS |           3      1.31%      1.31% |           1      0.44%      1.75% |          17      7.42%      9.17% |          28     12.23%     21.40% |          15      6.55%     27.95% |           0      0.00%     27.95% |          29     12.66%     40.61% |           2      0.87%     41.48% |           0      0.00%     41.48% |          20      8.73%     50.22% |          26     11.35%     61.57% |           1      0.44%     62.01% |          15      6.55%     68.56% |          14      6.11%     74.67% |          30     13.10%     87.77% |          28     12.23%    100.00% (Unspecified)
board.cache_hierarchy.ruby_system.L2Cache_Controller.SS.L1_GETS::total          229                       (Unspecified)
board.cache_hierarchy.ruby_system.L2Cache_Controller.SS.L1_GETX |           0      0.00%      0.00% |           0      0.00%      0.00% |           0      0.00%      0.00% |           0      0.00%      0.00% |           2     33.33%     33.33% |           0      0.00%     33.33% |           0      0.00%     33.33% |           0      0.00%     33.33% |           0      0.00%     33.33% |           0      0.00%     33.33% |           4     66.67%    100.00% |           0      0.00%    100.00% |           0      0.00%    100.00% |           0      0.00%    100.00% |           0      0.00%    100.00% |           0      0.00%    100.00% (Unspecified)
board.cache_hierarchy.ruby_system.L2Cache_Controller.SS.L1_GETX::total            6                       (Unspecified)
board.cache_hierarchy.ruby_system.L2Cache_Controller.SS.L1_UPGRADE |           1      0.47%      0.47% |          58     27.23%     27.70% |          25     11.74%     39.44% |          12      5.63%     45.07% |          11      5.16%     50.23% |          33     15.49%     65.73% |           6      2.82%     68.54% |           5      2.35%     70.89% |           2      0.94%     71.83% |           2      0.94%     72.77% |          25     11.74%     84.51% |           0      0.00%     84.51% |          12      5.63%     90.14% |           3      1.41%     91.55% |          17      7.98%     99.53% |           1      0.47%    100.00% (Unspecified)
board.cache_hierarchy.ruby_system.L2Cache_Controller.SS.L1_UPGRADE::total          213                       (Unspecified)
board.cache_hierarchy.ruby_system.L2Cache_Controller.M.L1_GETS |         109      5.82%      5.82% |         114      6.09%     11.91% |         116      6.19%     18.10% |         127      6.78%     24.88% |         120      6.41%     31.29% |         123      6.57%     37.85% |         121      6.46%     44.31% |         117      6.25%     50.56% |         117      6.25%     56.81% |         115      6.14%     62.95% |         118      6.30%     69.25% |         112      5.98%     75.23% |         119      6.35%     81.58% |         119      6.35%     87.93% |         117      6.25%     94.18% |         109      5.82%    100.00% (Unspecified)
board.cache_hierarchy.ruby_system.L2Cache_Controller.M.L1_GETS::total         1873                       (Unspecified)
board.cache_hierarchy.ruby_system.L2Cache_Controller.M.L1_GETX |           2      4.55%      4.55% |           1      2.27%      6.82% |           1      2.27%      9.09% |           2      4.55%     13.64% |          20     45.45%     59.09% |           0      0.00%     59.09% |           1      2.27%     61.36% |           1      2.27%     63.64% |           1      2.27%     65.91% |           1      2.27%     68.18% |           1      2.27%     70.45% |           1      2.27%     72.73% |          12     27.27%    100.00% |           0      0.00%    100.00% |           0      0.00%    100.00% |           0      0.00%    100.00% (Unspecified)
board.cache_hierarchy.ruby_system.L2Cache_Controller.M.L1_GETX::total           44                       (Unspecified)
board.cache_hierarchy.ruby_system.L2Cache_Controller.MT.L1_GETS |          35      5.98%      5.98% |          77     13.16%     19.15% |          59     10.09%     29.23% |          45      7.69%     36.92% |          30      5.13%     42.05% |          60     10.26%     52.31% |          22      3.76%     56.07% |          21      3.59%     59.66% |          20      3.42%     63.08% |          39      6.67%     69.74% |          47      8.03%     77.78% |          19      3.25%     81.03% |          28      4.79%     85.81% |          19      3.25%     89.06% |          37      6.32%     95.38% |          27      4.62%    100.00% (Unspecified)
board.cache_hierarchy.ruby_system.L2Cache_Controller.MT.L1_GETS::total          585                       (Unspecified)
board.cache_hierarchy.ruby_system.L2Cache_Controller.MT.L1_GETX |       16558     98.99%     98.99% |           0      0.00%     98.99% |           0      0.00%     98.99% |           0      0.00%     98.99% |          15      0.09%     99.08% |          26      0.16%     99.23% |          20      0.12%     99.35% |          26      0.16%     99.51% |          26      0.16%     99.67% |          10      0.06%     99.72% |          12      0.07%     99.80% |          10      0.06%     99.86% |          14      0.08%     99.94% |          10      0.06%    100.00% |           0      0.00%    100.00% |           0      0.00%    100.00% (Unspecified)
board.cache_hierarchy.ruby_system.L2Cache_Controller.MT.L1_GETX::total        16727                       (Unspecified)
board.cache_hierarchy.ruby_system.L2Cache_Controller.MT.L1_PUTX |           8      2.22%      2.22% |          27      7.48%      9.70% |          15      4.16%     13.85% |          27      7.48%     21.33% |          46     12.74%     34.07% |          31      8.59%     42.66% |          30      8.31%     50.97% |          15      4.16%     55.12% |          15      4.16%     59.28% |          15      4.16%     63.43% |          31      8.59%     72.02% |          11      3.05%     75.07% |          28      7.76%     82.83% |          39     10.80%     93.63% |          15      4.16%     97.78% |           8      2.22%    100.00% (Unspecified)
board.cache_hierarchy.ruby_system.L2Cache_Controller.MT.L1_PUTX::total          361                       (Unspecified)
board.cache_hierarchy.ruby_system.L2Cache_Controller.ISS.Mem_Data |           0      0.00%      0.00% |           2      2.74%      2.74% |           0      0.00%      2.74% |           0      0.00%      2.74% |          16     21.92%     24.66% |           1      1.37%     26.03% |           2      2.74%     28.77% |           0      0.00%     28.77% |           0      0.00%     28.77% |          17     23.29%     52.05% |           2      2.74%     54.79% |           1      1.37%     56.16% |           1      1.37%     57.53% |           0      0.00%     57.53% |          14     19.18%     76.71% |          17     23.29%    100.00% (Unspecified)
board.cache_hierarchy.ruby_system.L2Cache_Controller.ISS.Mem_Data::total           73                       (Unspecified)
board.cache_hierarchy.ruby_system.L2Cache_Controller.IS.Mem_Data |          25      6.60%      6.60% |          25      6.60%     13.19% |          26      6.86%     20.05% |          28      7.39%     27.44% |          26      6.86%     34.30% |          26      6.86%     41.16% |          19      5.01%     46.17% |          17      4.49%     50.66% |          20      5.28%     55.94% |          26      6.86%     62.80% |          24      6.33%     69.13% |          22      5.80%     74.93% |          27      7.12%     82.06% |          26      6.86%     88.92% |          20      5.28%     94.20% |          22      5.80%    100.00% (Unspecified)
board.cache_hierarchy.ruby_system.L2Cache_Controller.IS.Mem_Data::total          379                       (Unspecified)
board.cache_hierarchy.ruby_system.L2Cache_Controller.IM.Mem_Data |          40      5.12%      5.12% |          51      6.53%     11.65% |          57      7.30%     18.95% |          57      7.30%     26.25% |          57      7.30%     33.55% |          74      9.48%     43.02% |          57      7.30%     50.32% |          57      7.30%     57.62% |          57      7.30%     64.92% |          40      5.12%     70.04% |          40      5.12%     75.16% |          25      3.20%     78.36% |          42      5.38%     83.74% |          57      7.30%     91.04% |          36      4.61%     95.65% |          34      4.35%    100.00% (Unspecified)
board.cache_hierarchy.ruby_system.L2Cache_Controller.IM.Mem_Data::total          781                       (Unspecified)
board.cache_hierarchy.ruby_system.L2Cache_Controller.SS_MB.L1_GETS |           0      0.00%      0.00% |           1     50.00%     50.00% |           0      0.00%     50.00% |           0      0.00%     50.00% |           0      0.00%     50.00% |           0      0.00%     50.00% |           1     50.00%    100.00% |           0      0.00%    100.00% |           0      0.00%    100.00% |           0      0.00%    100.00% |           0      0.00%    100.00% |           0      0.00%    100.00% |           0      0.00%    100.00% |           0      0.00%    100.00% |           0      0.00%    100.00% |           0      0.00%    100.00% (Unspecified)
board.cache_hierarchy.ruby_system.L2Cache_Controller.SS_MB.L1_GETS::total            2                       (Unspecified)
board.cache_hierarchy.ruby_system.L2Cache_Controller.SS_MB.L1_GETX |           0      0.00%      0.00% |           0      0.00%      0.00% |           0      0.00%      0.00% |           0      0.00%      0.00% |           0      0.00%      0.00% |           0      0.00%      0.00% |           0      0.00%      0.00% |           0      0.00%      0.00% |           0      0.00%      0.00% |           0      0.00%      0.00% |           1    100.00%    100.00% |           0      0.00%    100.00% |           0      0.00%    100.00% |           0      0.00%    100.00% |           0      0.00%    100.00% |           0      0.00%    100.00% (Unspecified)
board.cache_hierarchy.ruby_system.L2Cache_Controller.SS_MB.L1_GETX::total            1                       (Unspecified)
board.cache_hierarchy.ruby_system.L2Cache_Controller.SS_MB.Exclusive_Unblock |           1      0.46%      0.46% |          58     26.48%     26.94% |          25     11.42%     38.36% |          12      5.48%     43.84% |          13      5.94%     49.77% |          33     15.07%     64.84% |           6      2.74%     67.58% |           5      2.28%     69.86% |           2      0.91%     70.78% |           2      0.91%     71.69% |          29     13.24%     84.93% |           0      0.00%     84.93% |          12      5.48%     90.41% |           3      1.37%     91.78% |          17      7.76%     99.54% |           1      0.46%    100.00% (Unspecified)
board.cache_hierarchy.ruby_system.L2Cache_Controller.SS_MB.Exclusive_Unblock::total          219                       (Unspecified)
board.cache_hierarchy.ruby_system.L2Cache_Controller.MT_MB.L1_GETX |      233445    100.00%    100.00% |           0      0.00%    100.00% |           0      0.00%    100.00% |           0      0.00%    100.00% |           0      0.00%    100.00% |           0      0.00%    100.00% |           0      0.00%    100.00% |           0      0.00%    100.00% |           0      0.00%    100.00% |           0      0.00%    100.00% |           0      0.00%    100.00% |           0      0.00%    100.00% |           0      0.00%    100.00% |           0      0.00%    100.00% |           0      0.00%    100.00% |           0      0.00%    100.00% (Unspecified)
board.cache_hierarchy.ruby_system.L2Cache_Controller.MT_MB.L1_GETX::total       233445                       (Unspecified)
board.cache_hierarchy.ruby_system.L2Cache_Controller.MT_MB.Exclusive_Unblock |       16709     85.70%     85.70% |         168      0.86%     86.56% |         174      0.89%     87.45% |         186      0.95%     88.40% |         228      1.17%     89.57% |         224      1.15%     90.72% |         201      1.03%     91.75% |         201      1.03%     92.78% |         201      1.03%     93.81% |         183      0.94%     94.75% |         173      0.89%     95.64% |         149      0.76%     96.40% |         188      0.96%     97.37% |         186      0.95%     98.32% |         167      0.86%     99.18% |         160      0.82%    100.00% (Unspecified)
board.cache_hierarchy.ruby_system.L2Cache_Controller.MT_MB.Exclusive_Unblock::total        19498                       (Unspecified)
board.cache_hierarchy.ruby_system.L2Cache_Controller.MT_IIB.L1_GETS |           0      0.00%      0.00% |           0      0.00%      0.00% |           0      0.00%      0.00% |           0      0.00%      0.00% |           0      0.00%      0.00% |           0      0.00%      0.00% |           0      0.00%      0.00% |           0      0.00%      0.00% |           0      0.00%      0.00% |           0      0.00%      0.00% |           1    100.00%    100.00% |           0      0.00%    100.00% |           0      0.00%    100.00% |           0      0.00%    100.00% |           0      0.00%    100.00% |           0      0.00%    100.00% (Unspecified)
board.cache_hierarchy.ruby_system.L2Cache_Controller.MT_IIB.L1_GETS::total            1                       (Unspecified)
board.cache_hierarchy.ruby_system.L2Cache_Controller.MT_IIB.WB_Data |          23      4.39%      4.39% |          60     11.45%     15.84% |          58     11.07%     26.91% |          32      6.11%     33.02% |          28      5.34%     38.36% |          59     11.26%     49.62% |          21      4.01%     53.63% |          20      3.82%     57.44% |          20      3.82%     61.26% |          38      7.25%     68.51% |          43      8.21%     76.72% |          19      3.63%     80.34% |          27      5.15%     85.50% |          18      3.44%     88.93% |          34      6.49%     95.42% |          24      4.58%    100.00% (Unspecified)
board.cache_hierarchy.ruby_system.L2Cache_Controller.MT_IIB.WB_Data::total          524                       (Unspecified)
board.cache_hierarchy.ruby_system.L2Cache_Controller.MT_IIB.WB_Data_clean |          12     44.44%     44.44% |           0      0.00%     44.44% |           1      3.70%     48.15% |           2      7.41%     55.56% |           1      3.70%     59.26% |           1      3.70%     62.96% |           1      3.70%     66.67% |           0      0.00%     66.67% |           0      0.00%     66.67% |           1      3.70%     70.37% |           2      7.41%     77.78% |           0      0.00%     77.78% |           1      3.70%     81.48% |           1      3.70%     85.19% |           2      7.41%     92.59% |           2      7.41%    100.00% (Unspecified)
board.cache_hierarchy.ruby_system.L2Cache_Controller.MT_IIB.WB_Data_clean::total           27                       (Unspecified)
board.cache_hierarchy.ruby_system.L2Cache_Controller.MT_IIB.Unblock |           0      0.00%      0.00% |          17     50.00%     50.00% |           0      0.00%     50.00% |          11     32.35%     82.35% |           1      2.94%     85.29% |           0      0.00%     85.29% |           0      0.00%     85.29% |           1      2.94%     88.24% |           0      0.00%     88.24% |           0      0.00%     88.24% |           2      5.88%     94.12% |           0      0.00%     94.12% |           0      0.00%     94.12% |           0      0.00%     94.12% |           1      2.94%     97.06% |           1      2.94%    100.00% (Unspecified)
board.cache_hierarchy.ruby_system.L2Cache_Controller.MT_IIB.Unblock::total           34                       (Unspecified)
board.cache_hierarchy.ruby_system.L2Cache_Controller.MT_IB.WB_Data |           0      0.00%      0.00% |          17     77.27%     77.27% |           0      0.00%     77.27% |           0      0.00%     77.27% |           1      4.55%     81.82% |           0      0.00%     81.82% |           0      0.00%     81.82% |           1      4.55%     86.36% |           0      0.00%     86.36% |           0      0.00%     86.36% |           2      9.09%     95.45% |           0      0.00%     95.45% |           0      0.00%     95.45% |           0      0.00%     95.45% |           0      0.00%     95.45% |           1      4.55%    100.00% (Unspecified)
board.cache_hierarchy.ruby_system.L2Cache_Controller.MT_IB.WB_Data::total           22                       (Unspecified)
board.cache_hierarchy.ruby_system.L2Cache_Controller.MT_IB.WB_Data_clean |           0      0.00%      0.00% |           0      0.00%      0.00% |           0      0.00%      0.00% |          11     91.67%     91.67% |           0      0.00%     91.67% |           0      0.00%     91.67% |           0      0.00%     91.67% |           0      0.00%     91.67% |           0      0.00%     91.67% |           0      0.00%     91.67% |           0      0.00%     91.67% |           0      0.00%     91.67% |           0      0.00%     91.67% |           0      0.00%     91.67% |           1      8.33%    100.00% |           0      0.00%    100.00% (Unspecified)
board.cache_hierarchy.ruby_system.L2Cache_Controller.MT_IB.WB_Data_clean::total           12                       (Unspecified)
board.cache_hierarchy.ruby_system.L2Cache_Controller.MT_SB.L1_UPGRADE |           0      0.00%      0.00% |           0      0.00%      0.00% |           0      0.00%      0.00% |           0      0.00%      0.00% |           0      0.00%      0.00% |           0      0.00%      0.00% |           0      0.00%      0.00% |           0      0.00%      0.00% |           0      0.00%      0.00% |           0      0.00%      0.00% |           2    100.00%    100.00% |           0      0.00%    100.00% |           0      0.00%    100.00% |           0      0.00%    100.00% |           0      0.00%    100.00% |           0      0.00%    100.00% (Unspecified)
board.cache_hierarchy.ruby_system.L2Cache_Controller.MT_SB.L1_UPGRADE::total            2                       (Unspecified)
board.cache_hierarchy.ruby_system.L2Cache_Controller.MT_SB.Unblock |          35      6.35%      6.35% |          60     10.89%     17.24% |          59     10.71%     27.95% |          34      6.17%     34.12% |          29      5.26%     39.38% |          60     10.89%     50.27% |          22      3.99%     54.26% |          20      3.63%     57.89% |          20      3.63%     61.52% |          39      7.08%     68.60% |          45      8.17%     76.77% |          19      3.45%     80.22% |          28      5.08%     85.30% |          19      3.45%     88.75% |          36      6.53%     95.28% |          26      4.72%    100.00% (Unspecified)
board.cache_hierarchy.ruby_system.L2Cache_Controller.MT_SB.Unblock::total          551                       (Unspecified)
board.cache_hierarchy.ruby_system.RequestType.LD.latency_hist_seqr::bucket_size          128                       (Unspecified)
board.cache_hierarchy.ruby_system.RequestType.LD.latency_hist_seqr::max_bucket         1279                       (Unspecified)
board.cache_hierarchy.ruby_system.RequestType.LD.latency_hist_seqr::samples       317410                       (Unspecified)
board.cache_hierarchy.ruby_system.RequestType.LD.latency_hist_seqr::mean     2.023919                       (Unspecified)
board.cache_hierarchy.ruby_system.RequestType.LD.latency_hist_seqr::gmean     1.041611                       (Unspecified)
board.cache_hierarchy.ruby_system.RequestType.LD.latency_hist_seqr::stdev    11.780311                       (Unspecified)
board.cache_hierarchy.ruby_system.RequestType.LD.latency_hist_seqr |      317192     99.93%     99.93% |         149      0.05%     99.98% |          67      0.02%    100.00% |           0      0.00%    100.00% |           0      0.00%    100.00% |           0      0.00%    100.00% |           0      0.00%    100.00% |           1      0.00%    100.00% |           1      0.00%    100.00% |           0      0.00%    100.00% (Unspecified)
board.cache_hierarchy.ruby_system.RequestType.LD.latency_hist_seqr::total       317410                       (Unspecified)
board.cache_hierarchy.ruby_system.RequestType.LD.hit_latency_hist_seqr::bucket_size            1                       (Unspecified)
board.cache_hierarchy.ruby_system.RequestType.LD.hit_latency_hist_seqr::max_bucket            9                       (Unspecified)
board.cache_hierarchy.ruby_system.RequestType.LD.hit_latency_hist_seqr::samples       314650                       (Unspecified)
board.cache_hierarchy.ruby_system.RequestType.LD.hit_latency_hist_seqr::mean     1.000019                       (Unspecified)
board.cache_hierarchy.ruby_system.RequestType.LD.hit_latency_hist_seqr::gmean     1.000013                       (Unspecified)
board.cache_hierarchy.ruby_system.RequestType.LD.hit_latency_hist_seqr::stdev     0.004367                       (Unspecified)
[...]
board.processor.cores9.core.decode.branchResolved        12702                       # Number of times decode resolved a branch (Count)
board.processor.cores9.core.decode.branchMispred          113                       # Number of times decode detected a branch misprediction (Count)
board.processor.cores9.core.decode.decodedInsts       342104                       # Number of instructions handled by decode (Count)
board.processor.cores9.core.decode.squashedInsts          584                       # Number of squashed instructions handled by decode (Count)
board.processor.cores9.core.executeStats0.numInsts       217143                       # Number of executed instructions (Count)
board.processor.cores9.core.executeStats0.numNop            0                       # Number of nop insts executed (Count)
board.processor.cores9.core.executeStats0.numBranches        12958                       # Number of branches executed (Count)
board.processor.cores9.core.executeStats0.numLoadInsts        52024                       # Number of load instructions executed (Count)
board.processor.cores9.core.executeStats0.numStoreInsts        16929                       # Number of stores executed (Count)
board.processor.cores9.core.executeStats0.instRate     0.080812                       # Inst execution rate ((Count/Cycle))
board.processor.cores9.core.executeStats0.numCCRegReads        33087                       # Number of times the CC registers were read (Count)
board.processor.cores9.core.executeStats0.numCCRegWrites        46407                       # Number of times the CC registers were written (Count)
board.processor.cores9.core.executeStats0.numFpRegReads           14                       # Number of times the floating registers were read (Count)
board.processor.cores9.core.executeStats0.numFpRegWrites            8                       # Number of times the floating registers were written (Count)
board.processor.cores9.core.executeStats0.numIntRegReads       266903                       # Number of times the integer registers were read (Count)
board.processor.cores9.core.executeStats0.numIntRegWrites       174257                       # Number of times the integer registers were written (Count)
board.processor.cores9.core.executeStats0.numMemRefs        68953                       # Number of memory refs (Count)
board.processor.cores9.core.executeStats0.numMiscRegReads        98950                       # Number of times the Misc registers were read (Count)
board.processor.cores9.core.executeStats0.numMiscRegWrites            1                       # Number of times the Misc registers were written (Count)
board.processor.cores9.core.executeStats0.numVecAluAccesses            0                       # Number of vector alu accesses (Count)
board.processor.cores9.core.executeStats0.numDiscardedOps            0                       # Number of ops (including micro ops) which were discarded before commit (Count)
board.processor.cores9.core.fetch.predictedBranches        18982                       # Number of branches that fetch has predicted taken (Count)
board.processor.cores9.core.fetch.cycles      2639019                       # Number of cycles fetch has run and was not squashing or blocked (Cycle)
board.processor.cores9.core.fetch.squashCycles         4712                       # Number of cycles fetch has spent squashing (Cycle)
board.processor.cores9.core.fetch.miscStallCycles           91                       # Number of cycles fetch has spent waiting on interrupts, or bad addresses, or out of MSHRs (Cycle)
board.processor.cores9.core.fetch.pendingTrapStallCycles          556                       # Number of stall cycles due to pending traps (Cycle)
board.processor.cores9.core.fetch.cacheLines        29489                       # Number of cache lines fetched (Count)
board.processor.cores9.core.fetch.icacheSquashes           84                       # Number of outstanding Icache misses that were squashed (Count)
board.processor.cores9.core.fetch.nisnDist::samples      2679342                       # Number of instructions fetched each cycle (Total) (Count)
board.processor.cores9.core.fetch.nisnDist::mean     0.149710                       # Number of instructions fetched each cycle (Total) (Count)
board.processor.cores9.core.fetch.nisnDist::stdev     1.023368                       # Number of instructions fetched each cycle (Total) (Count)
board.processor.cores9.core.fetch.nisnDist::underflows            0      0.00%      0.00% # Number of instructions fetched each cycle (Total) (Count)
board.processor.cores9.core.fetch.nisnDist::0      2614215     97.57%     97.57% # Number of instructions fetched each cycle (Total) (Count)
board.processor.cores9.core.fetch.nisnDist::1         8375      0.31%     97.88% # Number of instructions fetched each cycle (Total) (Count)
board.processor.cores9.core.fetch.nisnDist::2           33      0.00%     97.88% # Number of instructions fetched each cycle (Total) (Count)
board.processor.cores9.core.fetch.nisnDist::3         4189      0.16%     98.04% # Number of instructions fetched each cycle (Total) (Count)
board.processor.cores9.core.fetch.nisnDist::4         2115      0.08%     98.12% # Number of instructions fetched each cycle (Total) (Count)
board.processor.cores9.core.fetch.nisnDist::5         2328      0.09%     98.21% # Number of instructions fetched each cycle (Total) (Count)
board.processor.cores9.core.fetch.nisnDist::6        10224      0.38%     98.59% # Number of instructions fetched each cycle (Total) (Count)
board.processor.cores9.core.fetch.nisnDist::7         4231      0.16%     98.74% # Number of instructions fetched each cycle (Total) (Count)
board.processor.cores9.core.fetch.nisnDist::8        33632      1.26%    100.00% # Number of instructions fetched each cycle (Total) (Count)
board.processor.cores9.core.fetch.nisnDist::overflows            0      0.00%    100.00% # Number of instructions fetched each cycle (Total) (Count)
board.processor.cores9.core.fetch.nisnDist::min_value            0                       # Number of instructions fetched each cycle (Total) (Count)
board.processor.cores9.core.fetch.nisnDist::max_value            8                       # Number of instructions fetched each cycle (Total) (Count)
board.processor.cores9.core.fetch.nisnDist::total      2679342                       # Number of instructions fetched each cycle (Total) (Count)
board.processor.cores9.core.fetchStats0.numInsts       227964                       # Number of instructions fetched (thread level) (Count)
board.processor.cores9.core.fetchStats0.numOps            0                       # Number of ops (including micro ops) fetched (thread level) (Count)
board.processor.cores9.core.fetchStats0.fetchRate     0.084839                       # Number of inst fetches per cycle ((Count/Cycle))
board.processor.cores9.core.fetchStats0.numBranches        25720                       # Number of branches fetched (Count)
board.processor.cores9.core.fetchStats0.branchRate     0.009572                       # Number of branch fetches per cycle (Ratio)
board.processor.cores9.core.fetchStats0.icacheStallCycles        37320                       # ICache total stall cycles (Cycle)
board.processor.cores9.core.fetchStats0.numFetchSuspends            0                       # Number of times Execute suspended instruction fetching (Count)
board.processor.cores9.core.iew.idleCycles            0                       # Number of cycles IEW is idle (Cycle)
board.processor.cores9.core.iew.squashCycles         2245                       # Number of cycles IEW is squashing (Cycle)
board.processor.cores9.core.iew.blockCycles      2551872                       # Number of cycles IEW is blocking (Cycle)
board.processor.cores9.core.iew.unblockCycles         2351                       # Number of cycles IEW is unblocking (Cycle)
board.processor.cores9.core.iew.dispatchedInsts       308726                       # Number of instructions dispatched to IQ (Count)
board.processor.cores9.core.iew.dispSquashedInsts            2                       # Number of squashed instructions skipped by dispatch (Count)
board.processor.cores9.core.iew.dispLoadInsts        80977                       # Number of dispatched load instructions (Count)
board.processor.cores9.core.iew.dispStoreInsts        25208                       # Number of dispatched store instructions (Count)
board.processor.cores9.core.iew.dispNonSpecInsts         4121                       # Number of dispatched non-speculative instructions (Count)
board.processor.cores9.core.iew.iqFullEvents           33                       # Number of times the IQ has become full, causing a stall (Count)
board.processor.cores9.core.iew.lsqFullEvents          145                       # Number of times the LSQ has become full, causing a stall (Count)
board.processor.cores9.core.iew.memOrderViolationEvents         2054                       # Number of memory order violations (Count)
board.processor.cores9.core.iew.predictedTakenIncorrect            7                       # Number of branches that were predicted taken incorrectly (Count)
board.processor.cores9.core.iew.predictedNotTakenIncorrect          189                       # Number of branches that were predicted not taken incorrectly (Count)
board.processor.cores9.core.iew.branchMispredicts          196                       # Number of branch mispredicts detected at execute (Count)
board.processor.cores9.core.iew.instsToCommit       217103                       # Cumulative count of insts sent to commit (Count)
board.processor.cores9.core.iew.writebackCount       216911                       # Cumulative count of insts written-back (Count)
board.processor.cores9.core.iew.producerInst       151310                       # Number of instructions producing a value (Count)
board.processor.cores9.core.iew.consumerInst       245706                       # Number of instructions consuming a value (Count)
board.processor.cores9.core.iew.wbRate       0.080726                       # Insts written-back per cycle ((Count/Cycle))
board.processor.cores9.core.iew.wbFanout     0.615817                       # Average fanout of values written-back ((Count/Count))
board.processor.cores9.core.interrupts.clk_domain.clock         5328                       # Clock period in ticks (Tick)
board.processor.cores9.core.lsq0.forwLoads         4259                       # Number of loads that had data forwarded from stores (Count)
board.processor.cores9.core.lsq0.squashedLoads        49686                       # Number of loads squashed (Count)
board.processor.cores9.core.lsq0.ignoredResponses            1                       # Number of memory responses ignored because the instruction is squashed (Count)
board.processor.cores9.core.lsq0.memOrderViolation         2054                       # Number of memory ordering violations (Count)
board.processor.cores9.core.lsq0.squashedStores        12479                       # Number of stores squashed (Count)
board.processor.cores9.core.lsq0.rescheduledLoads            0                       # Number of loads that were rescheduled (Count)
board.processor.cores9.core.lsq0.blockedByCache            0                       # Number of times an access to memory failed due to the cache being blocked (Count)
board.processor.cores9.core.lsq0.loadToUse::samples        31291                       # Distribution of cycle latency between the first time a load is issued and its completion (Unspecified)
board.processor.cores9.core.lsq0.loadToUse::mean    83.398645                       # Distribution of cycle latency between the first time a load is issued and its completion (Unspecified)
board.processor.cores9.core.lsq0.loadToUse::stdev   436.428275                       # Distribution of cycle latency between the first time a load is issued and its completion (Unspecified)
board.processor.cores9.core.lsq0.loadToUse::0-9        30099     96.19%     96.19% # Distribution of cycle latency between the first time a load is issued and its completion (Unspecified)
board.processor.cores9.core.lsq0.loadToUse::10-19            8      0.03%     96.22% # Distribution of cycle latency between the first time a load is issued and its completion (Unspecified)
board.processor.cores9.core.lsq0.loadToUse::60-69            1      0.00%     96.22% # Distribution of cycle latency between the first time a load is issued and its completion (Unspecified)
board.processor.cores9.core.lsq0.loadToUse::80-89            2      0.01%     96.23% # Distribution of cycle latency between the first time a load is issued and its completion (Unspecified)
board.processor.cores9.core.lsq0.loadToUse::110-119          128      0.41%     96.63% # Distribution of cycle latency between the first time a load is issued and its completion (Unspecified)
board.processor.cores9.core.lsq0.loadToUse::120-129           12      0.04%     96.67% # Distribution of cycle latency between the first time a load is issued and its completion (Unspecified)
board.processor.cores9.core.lsq0.loadToUse::160-169            1      0.00%     96.68% # Distribution of cycle latency between the first time a load is issued and its completion (Unspecified)
board.processor.cores9.core.lsq0.loadToUse::170-179           12      0.04%     96.71% # Distribution of cycle latency between the first time a load is issued and its completion (Unspecified)
board.processor.cores9.core.lsq0.loadToUse::180-189            1      0.00%     96.72% # Distribution of cycle latency between the first time a load is issued and its completion (Unspecified)
board.processor.cores9.core.lsq0.loadToUse::220-229            1      0.00%     96.72% # Distribution of cycle latency between the first time a load is issued and its completion (Unspecified)
board.processor.cores9.core.lsq0.loadToUse::290-299            1      0.00%     96.72% # Distribution of cycle latency between the first time a load is issued and its completion (Unspecified)
board.processor.cores9.core.lsq0.loadToUse::overflows         1025      3.28%    100.00% # Distribution of cycle latency between the first time a load is issued and its completion (Unspecified)
board.processor.cores9.core.lsq0.loadToUse::min_value            2                       # Distribution of cycle latency between the first time a load is issued and its completion (Unspecified)
board.processor.cores9.core.lsq0.loadToUse::max_value         2535                       # Distribution of cycle latency between the first time a load is issued and its completion (Unspecified)
board.processor.cores9.core.lsq0.loadToUse::total        31291                       # Distribution of cycle latency between the first time a load is issued and its completion (Unspecified)
board.processor.cores9.core.mmu.dtb.rdAccesses        52024                       # TLB accesses on read requests (Count)
board.processor.cores9.core.mmu.dtb.wrAccesses        16929                       # TLB accesses on write requests (Count)
board.processor.cores9.core.mmu.dtb.rdMisses           60                       # TLB misses on read requests (Count)
board.processor.cores9.core.mmu.dtb.wrMisses            9                       # TLB misses on write requests (Count)
board.processor.cores9.core.mmu.dtb.walker.power_state.pwrStateResidencyTicks::UNDEFINED   1305742284                       # Cumulative time (in ticks) in various power states (Tick)
board.processor.cores9.core.mmu.itb.rdAccesses            0                       # TLB accesses on read requests (Count)
board.processor.cores9.core.mmu.itb.wrAccesses        29583                       # TLB accesses on write requests (Count)
board.processor.cores9.core.mmu.itb.rdMisses            0                       # TLB misses on read requests (Count)
board.processor.cores9.core.mmu.itb.wrMisses          129                       # TLB misses on write requests (Count)
board.processor.cores9.core.mmu.itb.walker.power_state.pwrStateResidencyTicks::UNDEFINED   1305742284                       # Cumulative time (in ticks) in various power states (Tick)
board.processor.cores9.core.power_state.pwrStateResidencyTicks::ON   1305742284                       # Cumulative time (in ticks) in various power states (Tick)
board.processor.cores9.core.rename.squashCycles         2245                       # Number of cycles rename is squashing (Cycle)
board.processor.cores9.core.rename.idleCycles        27247                       # Number of cycles rename is idle (Cycle)
board.processor.cores9.core.rename.blockCycles      2577345                       # Number of cycles rename is blocking (Cycle)
board.processor.cores9.core.rename.serializeStallCycles            0                       # count of cycles rename stalled for serializing inst (Cycle)
board.processor.cores9.core.rename.runCycles        42238                       # Number of cycles rename is running (Cycle)
board.processor.cores9.core.rename.unblockCycles        30267                       # Number of cycles rename is unblocking (Cycle)
board.processor.cores9.core.rename.renamedInsts       325466                       # Number of instructions processed by rename (Count)
board.processor.cores9.core.rename.ROBFullEvents            8                       # Number of times rename has blocked due to ROB full (Count)
board.processor.cores9.core.rename.IQFullEvents        29241                       # Number of times rename has blocked due to IQ full (Count)
board.processor.cores9.core.rename.LQFullEvents           64                       # Number of times rename has blocked due to LQ full (Count)
board.processor.cores9.core.rename.SQFullEvents          947                       # Number of times rename has blocked due to SQ full (Count)
board.processor.cores9.core.rename.renamedOperands       467937                       # Number of destination operands rename has renamed (Count)
board.processor.cores9.core.rename.lookups       961492                       # Number of register rename lookups that rename has made (Count)
board.processor.cores9.core.rename.intLookups       429584                       # Number of integer rename lookups (Count)
board.processor.cores9.core.rename.fpLookups           14                       # Number of floating rename lookups (Count)
board.processor.cores9.core.rename.committedMaps       179978                       # Number of HB maps that are committed (Count)
board.processor.cores9.core.rename.undoneMaps       287959                       # Number of HB maps that are undone due to squashing (Count)
board.processor.cores9.core.rename.serializing            0                       # count of serializing insts renamed (Count)
board.processor.cores9.core.rename.tempSerializing            0                       # count of temporary serializing insts renamed (Count)
board.processor.cores9.core.rename.skidInsts        50470                       # count of insts added to the skid buffer (Count)
board.processor.cores9.core.rob.reads         2960501                       # The number of ROB reads (Count)
board.processor.cores9.core.rob.writes         640247                       # The number of ROB writes (Count)
board.processor.cores9.core.thread_0.numInsts        71588                       # Number of Instructions committed (Count)
board.processor.cores9.core.thread_0.numOps       127035                       # Number of Ops committed (Count)
board.processor.cores9.core.thread_0.numMemRefs            0                       # Number of Memory References (Count)
board.workload.inst.arm                             0                       # number of arm instructions executed (Count)
board.workload.inst.quiesce                         0                       # number of quiesce instructions executed (Count)

---------- End Simulation Statistics   ----------
