gem5 Simulator System.  https://www.gem5.org
gem5 is copyrighted software; use the --copyright option for details.

gem5 version 23.0.1.0
gem5 compiled Nov 30 2023 11:45:00
gem5 started Dec  1 2023 17:26:48
gem5 executing on quzi, pid 8785
command line: gem5.opt -re --outdir=exp_43/int4float8 ./run.py

int_op: 4, int_issue: 1
int_op: 4, int_issue: 1
fp_op: 8, fp_issue: 1
Global frequency set at 1000000000000 ticks per second
Finished simulation.
