
---------- Begin Simulation Statistics ----------
simSeconds                                   0.000348                       # Number of seconds simulated (Second)
simTicks                                    348049269                       # Number of ticks simulated (Tick)
finalTick                                   573131628                       # Number of ticks from beginning of simulation (restored from checkpoints and never reset) (Tick)
simFreq                                  1000000000000                       # The number of ticks per simulated second ((Tick/Second))
hostSeconds                                     37.30                       # Real time elapsed on the host (Second)
hostTickRate                                  9332030                       # The number of ticks simulated per host second (ticks/s) ((Tick/Second))
hostMemory                                    1756540                       # Number of bytes of host memory used (Byte)
simInsts                                      1667502                       # Number of instructions simulated (Count)
simOps                                        2894613                       # Number of ops (including micro ops) simulated (Count)
hostInstRate                                    44710                       # Simulator instruction rate (inst/s) ((Count/Second))
hostOpRate                                      77611                       # Simulator op (including micro ops) rate (op/s) ((Count/Second))
board.cache_hierarchy.ruby_system.delayHistogram::bucket_size          256                       # delay histogram for all message (Unspecified)
board.cache_hierarchy.ruby_system.delayHistogram::max_bucket         2559                       # delay histogram for all message (Unspecified)
board.cache_hierarchy.ruby_system.delayHistogram::samples       152504                       # delay histogram for all message (Unspecified)
board.cache_hierarchy.ruby_system.delayHistogram::mean   449.481496                       # delay histogram for all message (Unspecified)
board.cache_hierarchy.ruby_system.delayHistogram::stdev   920.852649                       # delay histogram for all message (Unspecified)
board.cache_hierarchy.ruby_system.delayHistogram |      121618     79.75%     79.75% |         617      0.40%     80.15% |         899      0.59%     80.74% |         692      0.45%     81.20% |         826      0.54%     81.74% |        1073      0.70%     82.44% |         263      0.17%     82.61% |        1313      0.86%     83.47% |        2625      1.72%     85.20% |       22578     14.80%    100.00% # delay histogram for all message (Unspecified)
board.cache_hierarchy.ruby_system.delayHistogram::total       152504                       # delay histogram for all message (Unspecified)
board.cache_hierarchy.ruby_system.m_outstandReqHistSeqr::bucket_size            2                       (Unspecified)
board.cache_hierarchy.ruby_system.m_outstandReqHistSeqr::max_bucket           19                       (Unspecified)
board.cache_hierarchy.ruby_system.m_outstandReqHistSeqr::samples      1104216                       (Unspecified)
board.cache_hierarchy.ruby_system.m_outstandReqHistSeqr::mean     1.168310                       (Unspecified)
board.cache_hierarchy.ruby_system.m_outstandReqHistSeqr::gmean     1.118760                       (Unspecified)
board.cache_hierarchy.ruby_system.m_outstandReqHistSeqr::stdev     0.431437                       (Unspecified)
board.cache_hierarchy.ruby_system.m_outstandReqHistSeqr |      932473     84.45%     84.45% |      168933     15.30%     99.75% |        2413      0.22%     99.96% |         209      0.02%     99.98% |          75      0.01%     99.99% |          44      0.00%     99.99% |          59      0.01%    100.00% |           6      0.00%    100.00% |           4      0.00%    100.00% |           0      0.00%    100.00% (Unspecified)
board.cache_hierarchy.ruby_system.m_outstandReqHistSeqr::total      1104216                       (Unspecified)
board.cache_hierarchy.ruby_system.m_latencyHistSeqr::bucket_size          128                       (Unspecified)
board.cache_hierarchy.ruby_system.m_latencyHistSeqr::max_bucket         1279                       (Unspecified)
board.cache_hierarchy.ruby_system.m_latencyHistSeqr::samples      1104523                       (Unspecified)
board.cache_hierarchy.ruby_system.m_latencyHistSeqr::mean    11.843484                       (Unspecified)
board.cache_hierarchy.ruby_system.m_latencyHistSeqr::gmean     1.214103                       (Unspecified)
board.cache_hierarchy.ruby_system.m_latencyHistSeqr::stdev    62.541329                       (Unspecified)
board.cache_hierarchy.ruby_system.m_latencyHistSeqr |     1072052     97.06%     97.06% |        3270      0.30%     97.36% |        6570      0.59%     97.95% |       22614      2.05%    100.00% |           1      0.00%    100.00% |           1      0.00%    100.00% |           0      0.00%    100.00% |           1      0.00%    100.00% |           4      0.00%    100.00% |          10      0.00%    100.00% (Unspecified)
board.cache_hierarchy.ruby_system.m_latencyHistSeqr::total      1104523                       (Unspecified)
board.cache_hierarchy.ruby_system.m_hitLatencyHistSeqr::bucket_size          128                       (Unspecified)
board.cache_hierarchy.ruby_system.m_hitLatencyHistSeqr::max_bucket         1279                       (Unspecified)
board.cache_hierarchy.ruby_system.m_hitLatencyHistSeqr::samples      1064771                       (Unspecified)
board.cache_hierarchy.ruby_system.m_hitLatencyHistSeqr::mean     1.001793                       (Unspecified)
board.cache_hierarchy.ruby_system.m_hitLatencyHistSeqr::gmean     1.000209                       (Unspecified)
board.cache_hierarchy.ruby_system.m_hitLatencyHistSeqr::stdev     1.205924                       (Unspecified)
board.cache_hierarchy.ruby_system.m_hitLatencyHistSeqr |     1064768    100.00%    100.00% |           2      0.00%    100.00% |           0      0.00%    100.00% |           0      0.00%    100.00% |           0      0.00%    100.00% |           0      0.00%    100.00% |           0      0.00%    100.00% |           0      0.00%    100.00% |           0      0.00%    100.00% |           1      0.00%    100.00% (Unspecified)
board.cache_hierarchy.ruby_system.m_hitLatencyHistSeqr::total      1064771                       (Unspecified)
board.cache_hierarchy.ruby_system.m_missLatencyHistSeqr::bucket_size          128                       (Unspecified)
board.cache_hierarchy.ruby_system.m_missLatencyHistSeqr::max_bucket         1279                       (Unspecified)
board.cache_hierarchy.ruby_system.m_missLatencyHistSeqr::samples        39752                       (Unspecified)
board.cache_hierarchy.ruby_system.m_missLatencyHistSeqr::mean   302.241900                       (Unspecified)
board.cache_hierarchy.ruby_system.m_missLatencyHistSeqr::gmean   218.089428                       (Unspecified)
board.cache_hierarchy.ruby_system.m_missLatencyHistSeqr::stdev   145.471378                       (Unspecified)
board.cache_hierarchy.ruby_system.m_missLatencyHistSeqr |        7284     18.32%     18.32% |        3268      8.22%     26.54% |        6570     16.53%     43.07% |       22614     56.89%     99.96% |           1      0.00%     99.96% |           1      0.00%     99.96% |           0      0.00%     99.96% |           1      0.00%     99.97% |           4      0.01%     99.98% |           9      0.02%    100.00% (Unspecified)
board.cache_hierarchy.ruby_system.m_missLatencyHistSeqr::total        39752                       (Unspecified)
board.cache_hierarchy.ruby_system.delayVCHist.vnet_0::bucket_size          256                       # delay histogram for vnet_0 (Unspecified)
board.cache_hierarchy.ruby_system.delayVCHist.vnet_0::max_bucket         2559                       # delay histogram for vnet_0 (Unspecified)
board.cache_hierarchy.ruby_system.delayVCHist.vnet_0::samples        76562                       # delay histogram for vnet_0 (Unspecified)
board.cache_hierarchy.ruby_system.delayVCHist.vnet_0::mean   895.234790                       # delay histogram for vnet_0 (Unspecified)
board.cache_hierarchy.ruby_system.delayVCHist.vnet_0::stdev  1135.809365                       # delay histogram for vnet_0 (Unspecified)
board.cache_hierarchy.ruby_system.delayVCHist.vnet_0 |       45676     59.66%     59.66% |         617      0.81%     60.46% |         899      1.17%     61.64% |         692      0.90%     62.54% |         826      1.08%     63.62% |        1073      1.40%     65.02% |         263      0.34%     65.37% |        1313      1.71%     67.08% |        2625      3.43%     70.51% |       22578     29.49%    100.00% # delay histogram for vnet_0 (Unspecified)
board.cache_hierarchy.ruby_system.delayVCHist.vnet_0::total        76562                       # delay histogram for vnet_0 (Unspecified)
board.cache_hierarchy.ruby_system.delayVCHist.vnet_1::bucket_size            8                       # delay histogram for vnet_1 (Unspecified)
board.cache_hierarchy.ruby_system.delayVCHist.vnet_1::max_bucket           79                       # delay histogram for vnet_1 (Unspecified)
board.cache_hierarchy.ruby_system.delayVCHist.vnet_1::samples        42175                       # delay histogram for vnet_1 (Unspecified)
board.cache_hierarchy.ruby_system.delayVCHist.vnet_1::mean     0.160285                       # delay histogram for vnet_1 (Unspecified)
board.cache_hierarchy.ruby_system.delayVCHist.vnet_1::stdev     1.354755                       # delay histogram for vnet_1 (Unspecified)
board.cache_hierarchy.ruby_system.delayVCHist.vnet_1 |       41700     98.87%     98.87% |         395      0.94%     99.81% |          50      0.12%     99.93% |          17      0.04%     99.97% |          12      0.03%    100.00% |           1      0.00%    100.00% |           0      0.00%    100.00% |           0      0.00%    100.00% |           0      0.00%    100.00% |           0      0.00%    100.00% # delay histogram for vnet_1 (Unspecified)
board.cache_hierarchy.ruby_system.delayVCHist.vnet_1::total        42175                       # delay histogram for vnet_1 (Unspecified)
board.cache_hierarchy.ruby_system.delayVCHist.vnet_2::bucket_size            1                       # delay histogram for vnet_2 (Unspecified)
board.cache_hierarchy.ruby_system.delayVCHist.vnet_2::max_bucket            9                       # delay histogram for vnet_2 (Unspecified)
board.cache_hierarchy.ruby_system.delayVCHist.vnet_2::samples        33767                       # delay histogram for vnet_2 (Unspecified)
board.cache_hierarchy.ruby_system.delayVCHist.vnet_2 |       33767    100.00%    100.00% |           0      0.00%    100.00% |           0      0.00%    100.00% |           0      0.00%    100.00% |           0      0.00%    100.00% |           0      0.00%    100.00% |           0      0.00%    100.00% |           0      0.00%    100.00% |           0      0.00%    100.00% |           0      0.00%    100.00% # delay histogram for vnet_2 (Unspecified)
board.cache_hierarchy.ruby_system.delayVCHist.vnet_2::total        33767                       # delay histogram for vnet_2 (Unspecified)
board.cache_hierarchy.ruby_system.Directory_Controller.Fetch         1189      0.00%      0.00% (Unspecified)
board.cache_hierarchy.ruby_system.Directory_Controller.Memory_Data         1189      0.00%      0.00% (Unspecified)
board.cache_hierarchy.ruby_system.Directory_Controller.I.Fetch         1189      0.00%      0.00% (Unspecified)
board.cache_hierarchy.ruby_system.Directory_Controller.IM.Memory_Data         1189      0.00%      0.00% (Unspecified)
board.cache_hierarchy.ruby_system.L1Cache_Controller.Load |       13459      4.24%      4.24% |       19028      5.99%     10.23% |       18992      5.98%     16.22% |       18993      5.98%     22.20% |       18994      5.98%     28.18% |       19008      5.99%     34.17% |       18992      5.98%     40.15% |       18992      5.98%     46.14% |       18994      5.98%     52.12% |       19010      5.99%     58.11% |       18994      5.98%     64.09% |       18993      5.98%     70.07% |       19027      5.99%     76.07% |       18984      5.98%     82.05% |       19001      5.99%     88.03% |       18996      5.98%     94.02% |       18992      5.98%    100.00% (Unspecified)
board.cache_hierarchy.ruby_system.L1Cache_Controller.Load::total       317449                       (Unspecified)
board.cache_hierarchy.ruby_system.L1Cache_Controller.Ifetch |       20843      4.23%      4.23% |       29482      5.98%     10.20% |       29473      5.98%     16.18% |       29490      5.98%     22.16% |       29495      5.98%     28.14% |       29508      5.98%     34.12% |       29495      5.98%     40.10% |       29493      5.98%     46.08% |       29499      5.98%     52.06% |       29515      5.98%     58.04% |       29500      5.98%     64.02% |       29502      5.98%     70.00% |       29643      6.01%     76.01% |       29486      5.98%     81.99% |       29615      6.00%     87.99% |       29607      6.00%     94.00% |       29616      6.00%    100.00% (Unspecified)
board.cache_hierarchy.ruby_system.L1Cache_Controller.Ifetch::total       493262                       (Unspecified)
board.cache_hierarchy.ruby_system.L1Cache_Controller.Store |       22876      7.79%      7.79% |       17134      5.83%     13.62% |       16842      5.73%     19.35% |       16842      5.73%     25.08% |       16842      5.73%     30.81% |       16842      5.73%     36.55% |       16842      5.73%     42.28% |       16842      5.73%     48.01% |       16842      5.73%     53.74% |       16842      5.73%     59.48% |       16842      5.73%     65.21% |       16842      5.73%     70.94% |       17134      5.83%     76.77% |       16842      5.73%     82.50% |       17134      5.83%     88.34% |       17134      5.83%     94.17% |       17137      5.83%    100.00% (Unspecified)
board.cache_hierarchy.ruby_system.L1Cache_Controller.Store::total       293811                       (Unspecified)
board.cache_hierarchy.ruby_system.L1Cache_Controller.Inv |          92     34.72%     34.72% |          10      3.77%     38.49% |          10      3.77%     42.26% |          11      4.15%     46.42% |          11      4.15%     50.57% |          12      4.53%     55.09% |          10      3.77%     58.87% |          11      4.15%     63.02% |          11      4.15%     67.17% |          13      4.91%     72.08% |          13      4.91%     76.98% |          13      4.91%     81.89% |          13      4.91%     86.79% |           8      3.02%     89.81% |          12      4.53%     94.34% |           9      3.40%     97.74% |           6      2.26%    100.00% (Unspecified)
board.cache_hierarchy.ruby_system.L1Cache_Controller.Inv::total          265                       (Unspecified)
board.cache_hierarchy.ruby_system.L1Cache_Controller.L1_Replacement |         860     99.54%     99.54% |           0      0.00%     99.54% |           0      0.00%     99.54% |           0      0.00%     99.54% |           0      0.00%     99.54% |           2      0.23%     99.77% |           0      0.00%     99.77% |           0      0.00%     99.77% |           0      0.00%     99.77% |           2      0.23%    100.00% |           0      0.00%    100.00% |           0      0.00%    100.00% |           0      0.00%    100.00% |           0      0.00%    100.00% |           0      0.00%    100.00% |           0      0.00%    100.00% |           0      0.00%    100.00% (Unspecified)
board.cache_hierarchy.ruby_system.L1Cache_Controller.L1_Replacement::total          864                       (Unspecified)
board.cache_hierarchy.ruby_system.L1Cache_Controller.Fwd_GETX |          41      0.12%      0.12% |        1991      6.06%      6.18% |        2061      6.27%     12.45% |        2061      6.27%     18.72% |        2061      6.27%     24.98% |        2061      6.27%     31.25% |        2061      6.27%     37.52% |        2061      6.27%     43.79% |        2061      6.27%     50.06% |        2061      6.27%     56.32% |        2061      6.27%     62.59% |        2061      6.27%     68.86% |        2051      6.24%     75.10% |        2050      6.23%     81.33% |        2049      6.23%     87.56% |        2050      6.23%     93.80% |        2039      6.20%    100.00% (Unspecified)
board.cache_hierarchy.ruby_system.L1Cache_Controller.Fwd_GETX::total        32881                       (Unspecified)
board.cache_hierarchy.ruby_system.L1Cache_Controller.Fwd_GETS |         420     67.63%     67.63% |          21      3.38%     71.01% |          13      2.09%     73.11% |          13      2.09%     75.20% |          14      2.25%     77.46% |          13      2.09%     79.55% |          14      2.25%     81.80% |          13      2.09%     83.90% |          13      2.09%     85.99% |          13      2.09%     88.08% |          13      2.09%     90.18% |          14      2.25%     92.43% |          10      1.61%     94.04% |           9      1.45%     95.49% |          12      1.93%     97.42% |           9      1.45%     98.87% |           7      1.13%    100.00% (Unspecified)
board.cache_hierarchy.ruby_system.L1Cache_Controller.Fwd_GETS::total          621                       (Unspecified)
board.cache_hierarchy.ruby_system.L1Cache_Controller.Data |           0      0.00%      0.00% |           0      0.00%      0.00% |           0      0.00%      0.00% |           0      0.00%      0.00% |           0      0.00%      0.00% |           0      0.00%      0.00% |           0      0.00%      0.00% |           0      0.00%      0.00% |           0      0.00%      0.00% |           0      0.00%      0.00% |           0      0.00%      0.00% |           0      0.00%      0.00% |           1     50.00%     50.00% |           0      0.00%     50.00% |           0      0.00%     50.00% |           0      0.00%     50.00% |           1     50.00%    100.00% (Unspecified)
board.cache_hierarchy.ruby_system.L1Cache_Controller.Data::total            2                       (Unspecified)
board.cache_hierarchy.ruby_system.L1Cache_Controller.Data_Exclusive |          69      3.55%      3.55% |         140      7.21%     10.77% |         133      6.85%     17.62% |         132      6.80%     24.42% |         133      6.85%     31.27% |         132      6.80%     38.07% |         134      6.90%     44.98% |         132      6.80%     51.78% |         132      6.80%     58.58% |         132      6.80%     65.38% |         132      6.80%     72.18% |         132      6.80%     78.98% |         132      6.80%     85.78% |         125      6.44%     92.22% |          75      3.86%     96.08% |          35      1.80%     97.89% |          41      2.11%    100.00% (Unspecified)
board.cache_hierarchy.ruby_system.L1Cache_Controller.Data_Exclusive::total         1941                       (Unspecified)
board.cache_hierarchy.ruby_system.L1Cache_Controller.DataS_fromL1 |          63     10.14%     10.14% |          18      2.90%     13.04% |          26      4.19%     17.23% |          19      3.06%     20.29% |          20      3.22%     23.51% |          21      3.38%     26.89% |          18      2.90%     29.79% |          19      3.06%     32.85% |          19      3.06%     35.91% |          18      2.90%     38.81% |          19      3.06%     41.87% |          19      3.06%     44.93% |          20      3.22%     48.15% |          25      4.03%     52.17% |          76     12.24%     64.41% |         113     18.20%     82.61% |         108     17.39%    100.00% (Unspecified)
board.cache_hierarchy.ruby_system.L1Cache_Controller.DataS_fromL1::total          621                       (Unspecified)
board.cache_hierarchy.ruby_system.L1Cache_Controller.Data_all_Acks |         773      2.09%      2.09% |        2222      6.01%      8.10% |        2238      6.05%     14.16% |        2249      6.08%     20.24% |        2246      6.08%     26.32% |        2253      6.10%     32.41% |        2248      6.08%     38.50% |        2250      6.09%     44.58% |        2249      6.08%     50.67% |        2257      6.11%     56.77% |        2249      6.08%     62.86% |        2249      6.08%     68.94% |        2308      6.24%     75.19% |        2250      6.09%     81.28% |        2310      6.25%     87.53% |        2312      6.26%     93.78% |        2299      6.22%    100.00% (Unspecified)
board.cache_hierarchy.ruby_system.L1Cache_Controller.Data_all_Acks::total        36962                       (Unspecified)
board.cache_hierarchy.ruby_system.L1Cache_Controller.Ack |          40     15.21%     15.21% |           9      3.42%     18.63% |          13      4.94%     23.57% |          13      4.94%     28.52% |          13      4.94%     33.46% |          12      4.56%     38.02% |          14      5.32%     43.35% |          14      5.32%     48.67% |          14      5.32%     53.99% |          13      4.94%     58.94% |          14      5.32%     64.26% |          15      5.70%     69.96% |          22      8.37%     78.33% |          16      6.08%     84.41% |          13      4.94%     89.35% |          12      4.56%     93.92% |          16      6.08%    100.00% (Unspecified)
board.cache_hierarchy.ruby_system.L1Cache_Controller.Ack::total          263                       (Unspecified)
board.cache_hierarchy.ruby_system.L1Cache_Controller.Ack_all |          35     15.35%     15.35% |           9      3.95%     19.30% |          13      5.70%     25.00% |          13      5.70%     30.70% |          13      5.70%     36.40% |          12      5.26%     41.67% |          13      5.70%     47.37% |          13      5.70%     53.07% |          13      5.70%     58.77% |          12      5.26%     64.04% |          13      5.70%     69.74% |          14      6.14%     75.88% |          11      4.82%     80.70% |          13      5.70%     86.40% |          11      4.82%     91.23% |           9      3.95%     95.18% |          11      4.82%    100.00% (Unspecified)
board.cache_hierarchy.ruby_system.L1Cache_Controller.Ack_all::total          228                       (Unspecified)
board.cache_hierarchy.ruby_system.L1Cache_Controller.WB_Ack |         348    100.00%    100.00% |           0      0.00%    100.00% |           0      0.00%    100.00% |           0      0.00%    100.00% |           0      0.00%    100.00% |           0      0.00%    100.00% |           0      0.00%    100.00% |           0      0.00%    100.00% |           0      0.00%    100.00% |           0      0.00%    100.00% |           0      0.00%    100.00% |           0      0.00%    100.00% |           0      0.00%    100.00% |           0      0.00%    100.00% |           0      0.00%    100.00% |           0      0.00%    100.00% |           0      0.00%    100.00% (Unspecified)
board.cache_hierarchy.ruby_system.L1Cache_Controller.WB_Ack::total          348                       (Unspecified)
board.cache_hierarchy.ruby_system.L1Cache_Controller.NP.Load |         126      4.61%      4.61% |         157      5.75%     10.36% |         163      5.97%     16.33% |         164      6.00%     22.33% |         164      6.00%     28.33% |         165      6.04%     34.37% |         165      6.04%     40.41% |         164      6.00%     46.41% |         164      6.00%     52.42% |         165      6.04%     58.46% |         164      6.00%     64.46% |         164      6.00%     70.46% |         160      5.86%     76.32% |         164      6.00%     82.32% |         161      5.89%     88.21% |         161      5.89%     94.11% |         161      5.89%    100.00% (Unspecified)
board.cache_hierarchy.ruby_system.L1Cache_Controller.NP.Load::total         2732                       (Unspecified)
board.cache_hierarchy.ruby_system.L1Cache_Controller.NP.Ifetch |         339     11.13%     11.13% |         184      6.04%     17.18% |         159      5.22%     22.40% |         161      5.29%     27.68% |         160      5.25%     32.94% |         165      5.42%     38.36% |         161      5.29%     43.65% |         162      5.32%     48.97% |         161      5.29%     54.25% |         166      5.45%     59.70% |         161      5.29%     64.99% |         161      5.29%     70.28% |         186      6.11%     76.39% |         161      5.29%     81.67% |         186      6.11%     87.78% |         186      6.11%     93.89% |         186      6.11%    100.00% (Unspecified)
board.cache_hierarchy.ruby_system.L1Cache_Controller.NP.Ifetch::total         3045                       (Unspecified)
board.cache_hierarchy.ruby_system.L1Cache_Controller.NP.Store |         395     39.78%     39.78% |          61      6.14%     45.92% |          27      2.72%     48.64% |          27      2.72%     51.36% |          27      2.72%     54.08% |          27      2.72%     56.80% |          26      2.62%     59.42% |          27      2.72%     62.13% |          27      2.72%     64.85% |          27      2.72%     67.57% |          27      2.72%     70.29% |          27      2.72%     73.01% |          61      6.14%     79.15% |          27      2.72%     81.87% |          60      6.04%     87.92% |          60      6.04%     93.96% |          60      6.04%    100.00% (Unspecified)
board.cache_hierarchy.ruby_system.L1Cache_Controller.NP.Store::total          993                       (Unspecified)
board.cache_hierarchy.ruby_system.L1Cache_Controller.NP.Inv |          10    100.00%    100.00% |           0      0.00%    100.00% |           0      0.00%    100.00% |           0      0.00%    100.00% |           0      0.00%    100.00% |           0      0.00%    100.00% |           0      0.00%    100.00% |           0      0.00%    100.00% |           0      0.00%    100.00% |           0      0.00%    100.00% |           0      0.00%    100.00% |           0      0.00%    100.00% |           0      0.00%    100.00% |           0      0.00%    100.00% |           0      0.00%    100.00% |           0      0.00%    100.00% |           0      0.00%    100.00% (Unspecified)
board.cache_hierarchy.ruby_system.L1Cache_Controller.NP.Inv::total           10                       (Unspecified)
board.cache_hierarchy.ruby_system.L1Cache_Controller.I.Load |          41     55.41%     55.41% |           1      1.35%     56.76% |           1      1.35%     58.11% |           1      1.35%     59.46% |           1      1.35%     60.81% |           1      1.35%     62.16% |           1      1.35%     63.51% |           1      1.35%     64.86% |           1      1.35%     66.22% |           1      1.35%     67.57% |           1      1.35%     68.92% |           1      1.35%     70.27% |           6      8.11%     78.38% |           0      0.00%     78.38% |           6      8.11%     86.49% |           5      6.76%     93.24% |           5      6.76%    100.00% (Unspecified)
board.cache_hierarchy.ruby_system.L1Cache_Controller.I.Load::total           74                       (Unspecified)
board.cache_hierarchy.ruby_system.L1Cache_Controller.I.Store |           3      0.01%      0.01% |        1977      6.05%      6.06% |        2047      6.26%     12.32% |        2047      6.26%     18.59% |        2047      6.26%     24.85% |        2048      6.27%     31.12% |        2047      6.26%     37.38% |        2047      6.26%     43.64% |        2047      6.26%     49.91% |        2048      6.27%     56.17% |        2047      6.26%     62.44% |        2047      6.26%     68.70% |        2048      6.27%     74.97% |        2048      6.27%     81.23% |        2048      6.27%     87.50% |        2048      6.27%     93.77% |        2037      6.23%    100.00% (Unspecified)
board.cache_hierarchy.ruby_system.L1Cache_Controller.I.Store::total        32681                       (Unspecified)
board.cache_hierarchy.ruby_system.L1Cache_Controller.I.L1_Replacement |          57    100.00%    100.00% |           0      0.00%    100.00% |           0      0.00%    100.00% |           0      0.00%    100.00% |           0      0.00%    100.00% |           0      0.00%    100.00% |           0      0.00%    100.00% |           0      0.00%    100.00% |           0      0.00%    100.00% |           0      0.00%    100.00% |           0      0.00%    100.00% |           0      0.00%    100.00% |           0      0.00%    100.00% |           0      0.00%    100.00% |           0      0.00%    100.00% |           0      0.00%    100.00% |           0      0.00%    100.00% (Unspecified)
board.cache_hierarchy.ruby_system.L1Cache_Controller.I.L1_Replacement::total           57                       (Unspecified)
board.cache_hierarchy.ruby_system.L1Cache_Controller.S.Load |         258      4.86%      4.86% |          68      1.28%      6.14% |          74      1.39%      7.53% |          72      1.36%      8.89% |          73      1.37%     10.26% |          80      1.51%     11.77% |          71      1.34%     13.10% |          73      1.37%     14.48% |          76      1.43%     15.91% |          81      1.53%     17.44% |          74      1.39%     18.83% |          79      1.49%     20.32% |          80      1.51%     21.82% |         189      3.56%     25.38% |         950     17.89%     43.27% |        1550     29.18%     72.45% |        1463     27.55%    100.00% (Unspecified)
board.cache_hierarchy.ruby_system.L1Cache_Controller.S.Load::total         5311                       (Unspecified)
board.cache_hierarchy.ruby_system.L1Cache_Controller.S.Ifetch |       20504      4.18%      4.18% |       29298      5.98%     10.16% |       29314      5.98%     16.14% |       29329      5.98%     22.12% |       29335      5.98%     28.11% |       29343      5.99%     34.09% |       29334      5.98%     40.08% |       29331      5.98%     46.06% |       29338      5.98%     52.04% |       29349      5.99%     58.03% |       29339      5.98%     64.02% |       29341      5.99%     70.00% |       29457      6.01%     76.01% |       29325      5.98%     81.99% |       29429      6.00%     87.99% |       29421      6.00%     94.00% |       29430      6.00%    100.00% (Unspecified)
board.cache_hierarchy.ruby_system.L1Cache_Controller.S.Ifetch::total       490217                       (Unspecified)
board.cache_hierarchy.ruby_system.L1Cache_Controller.S.Store |          35     15.49%     15.49% |           9      3.98%     19.47% |          13      5.75%     25.22% |          13      5.75%     30.97% |          13      5.75%     36.73% |          12      5.31%     42.04% |          13      5.75%     47.79% |          13      5.75%     53.54% |          13      5.75%     59.29% |          12      5.31%     64.60% |          13      5.75%     70.35% |          14      6.19%     76.55% |          10      4.42%     80.97% |          13      5.75%     86.73% |          11      4.87%     91.59% |           9      3.98%     95.58% |          10      4.42%    100.00% (Unspecified)
board.cache_hierarchy.ruby_system.L1Cache_Controller.S.Store::total          226                       (Unspecified)
board.cache_hierarchy.ruby_system.L1Cache_Controller.S.Inv |          82     32.16%     32.16% |          10      3.92%     36.08% |          10      3.92%     40.00% |          11      4.31%     44.31% |          11      4.31%     48.63% |          12      4.71%     53.33% |          10      3.92%     57.25% |          11      4.31%     61.57% |          11      4.31%     65.88% |          13      5.10%     70.98% |          13      5.10%     76.08% |          13      5.10%     81.18% |          13      5.10%     86.27% |           8      3.14%     89.41% |          12      4.71%     94.12% |           9      3.53%     97.65% |           6      2.35%    100.00% (Unspecified)
board.cache_hierarchy.ruby_system.L1Cache_Controller.S.Inv::total          255                       (Unspecified)
board.cache_hierarchy.ruby_system.L1Cache_Controller.S.L1_Replacement |         455     99.13%     99.13% |           0      0.00%     99.13% |           0      0.00%     99.13% |           0      0.00%     99.13% |           0      0.00%     99.13% |           2      0.44%     99.56% |           0      0.00%     99.56% |           0      0.00%     99.56% |           0      0.00%     99.56% |           2      0.44%    100.00% |           0      0.00%    100.00% |           0      0.00%    100.00% |           0      0.00%    100.00% |           0      0.00%    100.00% |           0      0.00%    100.00% |           0      0.00%    100.00% |           0      0.00%    100.00% (Unspecified)
board.cache_hierarchy.ruby_system.L1Cache_Controller.S.L1_Replacement::total          459                       (Unspecified)
board.cache_hierarchy.ruby_system.L1Cache_Controller.E.Load |        1613      5.67%      5.67% |        1919      6.74%     12.41% |        1916      6.73%     19.14% |        1916      6.73%     25.87% |        1916      6.73%     32.60% |        1916      6.73%     39.34% |        1920      6.75%     46.08% |        1916      6.73%     52.81% |        1916      6.73%     59.54% |        1916      6.73%     66.28% |        1916      6.73%     73.01% |        1916      6.73%     79.74% |        1916      6.73%     86.47% |        1811      6.36%     92.83% |        1050      3.69%     96.52% |         450      1.58%     98.10% |         540      1.90%    100.00% (Unspecified)
board.cache_hierarchy.ruby_system.L1Cache_Controller.E.Load::total        28463                       (Unspecified)
board.cache_hierarchy.ruby_system.L1Cache_Controller.E.Store |          16     80.00%     80.00% |           0      0.00%     80.00% |           0      0.00%     80.00% |           0      0.00%     80.00% |           0      0.00%     80.00% |           0      0.00%     80.00% |           1      5.00%     85.00% |           0      0.00%     85.00% |           0      0.00%     85.00% |           0      0.00%     85.00% |           0      0.00%     85.00% |           0      0.00%     85.00% |           0      0.00%     85.00% |           0      0.00%     85.00% |           1      5.00%     90.00% |           1      5.00%     95.00% |           1      5.00%    100.00% (Unspecified)
board.cache_hierarchy.ruby_system.L1Cache_Controller.E.Store::total           20                       (Unspecified)
board.cache_hierarchy.ruby_system.L1Cache_Controller.E.L1_Replacement |           9    100.00%    100.00% |           0      0.00%    100.00% |           0      0.00%    100.00% |           0      0.00%    100.00% |           0      0.00%    100.00% |           0      0.00%    100.00% |           0      0.00%    100.00% |           0      0.00%    100.00% |           0      0.00%    100.00% |           0      0.00%    100.00% |           0      0.00%    100.00% |           0      0.00%    100.00% |           0      0.00%    100.00% |           0      0.00%    100.00% |           0      0.00%    100.00% |           0      0.00%    100.00% |           0      0.00%    100.00% (Unspecified)
board.cache_hierarchy.ruby_system.L1Cache_Controller.E.L1_Replacement::total            9                       (Unspecified)
board.cache_hierarchy.ruby_system.L1Cache_Controller.E.Fwd_GETS |           6     13.64%     13.64% |           9     20.45%     34.09% |           2      4.55%     38.64% |           2      4.55%     43.18% |           3      6.82%     50.00% |           2      4.55%     54.55% |           3      6.82%     61.36% |           2      4.55%     65.91% |           2      4.55%     70.45% |           2      4.55%     75.00% |           2      4.55%     79.55% |           2      4.55%     84.09% |           2      4.55%     88.64% |           2      4.55%     93.18% |           1      2.27%     95.45% |           1      2.27%     97.73% |           1      2.27%    100.00% (Unspecified)
board.cache_hierarchy.ruby_system.L1Cache_Controller.E.Fwd_GETS::total           44                       (Unspecified)
board.cache_hierarchy.ruby_system.L1Cache_Controller.M.Load |       11421      4.07%      4.07% |       16883      6.01%     10.08% |       16838      5.99%     16.07% |       16840      6.00%     22.07% |       16840      6.00%     28.06% |       16846      6.00%     34.06% |       16835      5.99%     40.06% |       16838      5.99%     46.05% |       16837      5.99%     52.04% |       16847      6.00%     58.04% |       16839      6.00%     64.04% |       16833      5.99%     70.03% |       16865      6.00%     76.04% |       16820      5.99%     82.02% |       16834      5.99%     88.02% |       16830      5.99%     94.01% |       16823      5.99%    100.00% (Unspecified)
board.cache_hierarchy.ruby_system.L1Cache_Controller.M.Load::total       280869                       (Unspecified)
board.cache_hierarchy.ruby_system.L1Cache_Controller.M.Store |       22427      8.63%      8.63% |       15087      5.81%     14.43% |       14755      5.68%     20.11% |       14755      5.68%     25.79% |       14755      5.68%     31.47% |       14755      5.68%     37.14% |       14755      5.68%     42.82% |       14755      5.68%     48.50% |       14755      5.68%     54.18% |       14755      5.68%     59.85% |       14755      5.68%     65.53% |       14754      5.68%     71.21% |       15015      5.78%     76.99% |       14754      5.68%     82.66% |       15014      5.78%     88.44% |       15016      5.78%     94.22% |       15029      5.78%    100.00% (Unspecified)
board.cache_hierarchy.ruby_system.L1Cache_Controller.M.Store::total       259891                       (Unspecified)
board.cache_hierarchy.ruby_system.L1Cache_Controller.M.L1_Replacement |         339    100.00%    100.00% |           0      0.00%    100.00% |           0      0.00%    100.00% |           0      0.00%    100.00% |           0      0.00%    100.00% |           0      0.00%    100.00% |           0      0.00%    100.00% |           0      0.00%    100.00% |           0      0.00%    100.00% |           0      0.00%    100.00% |           0      0.00%    100.00% |           0      0.00%    100.00% |           0      0.00%    100.00% |           0      0.00%    100.00% |           0      0.00%    100.00% |           0      0.00%    100.00% |           0      0.00%    100.00% (Unspecified)
board.cache_hierarchy.ruby_system.L1Cache_Controller.M.L1_Replacement::total          339                       (Unspecified)
board.cache_hierarchy.ruby_system.L1Cache_Controller.M.Fwd_GETX |          41      0.12%      0.12% |        1991      6.06%      6.18% |        2061      6.27%     12.45% |        2061      6.27%     18.72% |        2061      6.27%     24.98% |        2061      6.27%     31.25% |        2061      6.27%     37.52% |        2061      6.27%     43.79% |        2061      6.27%     50.06% |        2061      6.27%     56.32% |        2061      6.27%     62.59% |        2061      6.27%     68.86% |        2051      6.24%     75.10% |        2050      6.23%     81.33% |        2049      6.23%     87.56% |        2050      6.23%     93.80% |        2039      6.20%    100.00% (Unspecified)
board.cache_hierarchy.ruby_system.L1Cache_Controller.M.Fwd_GETX::total        32881                       (Unspecified)
board.cache_hierarchy.ruby_system.L1Cache_Controller.M.Fwd_GETS |         414     71.75%     71.75% |          12      2.08%     73.83% |          11      1.91%     75.74% |          11      1.91%     77.64% |          11      1.91%     79.55% |          11      1.91%     81.46% |          11      1.91%     83.36% |          11      1.91%     85.27% |          11      1.91%     87.18% |          11      1.91%     89.08% |          11      1.91%     90.99% |          12      2.08%     93.07% |           8      1.39%     94.45% |           7      1.21%     95.67% |          11      1.91%     97.57% |           8      1.39%     98.96% |           6      1.04%    100.00% (Unspecified)
board.cache_hierarchy.ruby_system.L1Cache_Controller.M.Fwd_GETS::total          577                       (Unspecified)
board.cache_hierarchy.ruby_system.L1Cache_Controller.IS.Data_Exclusive |          69      3.55%      3.55% |         140      7.21%     10.77% |         133      6.85%     17.62% |         132      6.80%     24.42% |         133      6.85%     31.27% |         132      6.80%     38.07% |         134      6.90%     44.98% |         132      6.80%     51.78% |         132      6.80%     58.58% |         132      6.80%     65.38% |         132      6.80%     72.18% |         132      6.80%     78.98% |         132      6.80%     85.78% |         125      6.44%     92.22% |          75      3.86%     96.08% |          35      1.80%     97.89% |          41      2.11%    100.00% (Unspecified)
board.cache_hierarchy.ruby_system.L1Cache_Controller.IS.Data_Exclusive::total         1941                       (Unspecified)
board.cache_hierarchy.ruby_system.L1Cache_Controller.IS.DataS_fromL1 |          63     10.14%     10.14% |          18      2.90%     13.04% |          26      4.19%     17.23% |          19      3.06%     20.29% |          20      3.22%     23.51% |          21      3.38%     26.89% |          18      2.90%     29.79% |          19      3.06%     32.85% |          19      3.06%     35.91% |          18      2.90%     38.81% |          19      3.06%     41.87% |          19      3.06%     44.93% |          20      3.22%     48.15% |          25      4.03%     52.17% |          76     12.24%     64.41% |         113     18.20%     82.61% |         108     17.39%    100.00% (Unspecified)
board.cache_hierarchy.ruby_system.L1Cache_Controller.IS.DataS_fromL1::total          621                       (Unspecified)
board.cache_hierarchy.ruby_system.L1Cache_Controller.IS.Data_all_Acks |         375     11.40%     11.40% |         184      5.59%     16.99% |         164      4.98%     21.98% |         175      5.32%     27.29% |         172      5.23%     32.52% |         178      5.41%     37.93% |         175      5.32%     43.25% |         176      5.35%     48.60% |         175      5.32%     53.92% |         182      5.53%     59.45% |         175      5.32%     64.77% |         175      5.32%     70.09% |         200      6.08%     76.17% |         175      5.32%     81.49% |         202      6.14%     87.63% |         204      6.20%     93.83% |         203      6.17%    100.00% (Unspecified)
board.cache_hierarchy.ruby_system.L1Cache_Controller.IS.Data_all_Acks::total         3290                       (Unspecified)
board.cache_hierarchy.ruby_system.L1Cache_Controller.IM.Data |           0      0.00%      0.00% |           0      0.00%      0.00% |           0      0.00%      0.00% |           0      0.00%      0.00% |           0      0.00%      0.00% |           0      0.00%      0.00% |           0      0.00%      0.00% |           0      0.00%      0.00% |           0      0.00%      0.00% |           0      0.00%      0.00% |           0      0.00%      0.00% |           0      0.00%      0.00% |           1     50.00%     50.00% |           0      0.00%     50.00% |           0      0.00%     50.00% |           0      0.00%     50.00% |           1     50.00%    100.00% (Unspecified)
board.cache_hierarchy.ruby_system.L1Cache_Controller.IM.Data::total            2                       (Unspecified)
board.cache_hierarchy.ruby_system.L1Cache_Controller.IM.Data_all_Acks |         398      1.18%      1.18% |        2038      6.05%      7.23% |        2074      6.16%     13.39% |        2074      6.16%     19.55% |        2074      6.16%     25.71% |        2075      6.16%     31.88% |        2073      6.16%     38.03% |        2074      6.16%     44.19% |        2074      6.16%     50.35% |        2075      6.16%     56.51% |        2074      6.16%     62.67% |        2074      6.16%     68.83% |        2108      6.26%     75.09% |        2075      6.16%     81.25% |        2108      6.26%     87.51% |        2108      6.26%     93.78% |        2096      6.22%    100.00% (Unspecified)
board.cache_hierarchy.ruby_system.L1Cache_Controller.IM.Data_all_Acks::total        33672                       (Unspecified)
board.cache_hierarchy.ruby_system.L1Cache_Controller.SM.Ack |          40     15.21%     15.21% |           9      3.42%     18.63% |          13      4.94%     23.57% |          13      4.94%     28.52% |          13      4.94%     33.46% |          12      4.56%     38.02% |          14      5.32%     43.35% |          14      5.32%     48.67% |          14      5.32%     53.99% |          13      4.94%     58.94% |          14      5.32%     64.26% |          15      5.70%     69.96% |          22      8.37%     78.33% |          16      6.08%     84.41% |          13      4.94%     89.35% |          12      4.56%     93.92% |          16      6.08%    100.00% (Unspecified)
board.cache_hierarchy.ruby_system.L1Cache_Controller.SM.Ack::total          263                       (Unspecified)
board.cache_hierarchy.ruby_system.L1Cache_Controller.SM.Ack_all |          35     15.35%     15.35% |           9      3.95%     19.30% |          13      5.70%     25.00% |          13      5.70%     30.70% |          13      5.70%     36.40% |          12      5.26%     41.67% |          13      5.70%     47.37% |          13      5.70%     53.07% |          13      5.70%     58.77% |          12      5.26%     64.04% |          13      5.70%     69.74% |          14      6.14%     75.88% |          11      4.82%     80.70% |          13      5.70%     86.40% |          11      4.82%     91.23% |           9      3.95%     95.18% |          11      4.82%    100.00% (Unspecified)
board.cache_hierarchy.ruby_system.L1Cache_Controller.SM.Ack_all::total          228                       (Unspecified)
board.cache_hierarchy.ruby_system.L1Cache_Controller.M_I.WB_Ack |         348    100.00%    100.00% |           0      0.00%    100.00% |           0      0.00%    100.00% |           0      0.00%    100.00% |           0      0.00%    100.00% |           0      0.00%    100.00% |           0      0.00%    100.00% |           0      0.00%    100.00% |           0      0.00%    100.00% |           0      0.00%    100.00% |           0      0.00%    100.00% |           0      0.00%    100.00% |           0      0.00%    100.00% |           0      0.00%    100.00% |           0      0.00%    100.00% |           0      0.00%    100.00% |           0      0.00%    100.00% (Unspecified)
board.cache_hierarchy.ruby_system.L1Cache_Controller.M_I.WB_Ack::total          348                       (Unspecified)
board.cache_hierarchy.ruby_system.L2Cache_Controller.L1_GET_INSTR |         137      4.50%      4.50% |         165      5.42%      9.91% |         220      7.22%     17.14% |         248      8.14%     25.28% |         217      7.12%     32.40% |         189      6.20%     38.61% |         214      7.03%     45.63% |         154      5.06%     50.69% |         218      7.16%     57.85% |         217      7.12%     64.97% |         206      6.76%     71.73% |         207      6.80%     78.53% |         199      6.53%     85.06% |         192      6.30%     91.37% |         152      4.99%     96.36% |         111      3.64%    100.00% (Unspecified)
board.cache_hierarchy.ruby_system.L2Cache_Controller.L1_GET_INSTR::total         3046                       (Unspecified)
board.cache_hierarchy.ruby_system.L2Cache_Controller.L1_GETS |         148      5.27%      5.27% |         216      7.69%     12.96% |         194      6.91%     19.86% |         201      7.16%     27.02% |         183      6.51%     33.54% |         184      6.55%     40.09% |         176      6.27%     46.35% |         140      4.98%     51.33% |         150      5.34%     56.67% |         190      6.76%     63.44% |         196      6.98%     70.42% |         132      4.70%     75.12% |         164      5.84%     80.95% |         166      5.91%     86.86% |         188      6.69%     93.56% |         181      6.44%    100.00% (Unspecified)
board.cache_hierarchy.ruby_system.L2Cache_Controller.L1_GETS::total         2809                       (Unspecified)
board.cache_hierarchy.ruby_system.L2Cache_Controller.L1_GETX |      411289     99.77%     99.77% |          54      0.01%     99.79% |          55      0.01%     99.80% |          56      0.01%     99.81% |          92      0.02%     99.83% |          98      0.02%     99.86% |          77      0.02%     99.88% |          82      0.02%     99.90% |          82      0.02%     99.92% |          49      0.01%     99.93% |          53      0.01%     99.94% |          34      0.01%     99.95% |          66      0.02%     99.97% |          65      0.02%     99.98% |          44      0.01%     99.99% |          32      0.01%    100.00% (Unspecified)
board.cache_hierarchy.ruby_system.L2Cache_Controller.L1_GETX::total       412228                       (Unspecified)
board.cache_hierarchy.ruby_system.L2Cache_Controller.L1_UPGRADE |           1      0.44%      0.44% |          65     28.76%     29.20% |          27     11.95%     41.15% |          13      5.75%     46.90% |          14      6.19%     53.10% |          33     14.60%     67.70% |           5      2.21%     69.91% |           5      2.21%     72.12% |           2      0.88%     73.01% |           2      0.88%     73.89% |          25     11.06%     84.96% |           0      0.00%     84.96% |          13      5.75%     90.71% |           3      1.33%     92.04% |          17      7.52%     99.56% |           1      0.44%    100.00% (Unspecified)
board.cache_hierarchy.ruby_system.L2Cache_Controller.L1_UPGRADE::total          226                       (Unspecified)
board.cache_hierarchy.ruby_system.L2Cache_Controller.L1_PUTX |           8      2.30%      2.30% |          18      5.17%      7.47% |          15      4.31%     11.78% |          31      8.91%     20.69% |          47     13.51%     34.20% |          31      8.91%     43.10% |          30      8.62%     51.72% |          15      4.31%     56.03% |          15      4.31%     60.34% |          15      4.31%     64.66% |          31      8.91%     73.56% |          10      2.87%     76.44% |          29      8.33%     84.77% |          30      8.62%     93.39% |          15      4.31%     97.70% |           8      2.30%    100.00% (Unspecified)
board.cache_hierarchy.ruby_system.L2Cache_Controller.L1_PUTX::total          348                       (Unspecified)
board.cache_hierarchy.ruby_system.L2Cache_Controller.Mem_Data |          62      5.21%      5.21% |          76      6.39%     11.61% |          80      6.73%     18.33% |          82      6.90%     25.23% |          96      8.07%     33.31% |          97      8.16%     41.46% |          76      6.39%     47.86% |          72      6.06%     53.91% |          75      6.31%     60.22% |          79      6.64%     66.86% |          64      5.38%     72.25% |          44      3.70%     75.95% |          67      5.63%     81.58% |          80      6.73%     88.31% |          68      5.72%     94.03% |          71      5.97%    100.00% (Unspecified)
board.cache_hierarchy.ruby_system.L2Cache_Controller.Mem_Data::total         1189                       (Unspecified)
board.cache_hierarchy.ruby_system.L2Cache_Controller.WB_Data |          23      3.99%      3.99% |          98     16.98%     20.97% |          60     10.40%     31.37% |          29      5.03%     36.40% |          29      5.03%     41.42% |          59     10.23%     51.65% |          20      3.47%     55.11% |          21      3.64%     58.75% |          19      3.29%     62.05% |          38      6.59%     68.63% |          42      7.28%     75.91% |          20      3.47%     79.38% |          28      4.85%     84.23% |          32      5.55%     89.77% |          34      5.89%     95.67% |          25      4.33%    100.00% (Unspecified)
board.cache_hierarchy.ruby_system.L2Cache_Controller.WB_Data::total          577                       (Unspecified)
board.cache_hierarchy.ruby_system.L2Cache_Controller.WB_Data_clean |          12     27.27%     27.27% |           0      0.00%     27.27% |           1      2.27%     29.55% |          17     38.64%     68.18% |           1      2.27%     70.45% |           1      2.27%     72.73% |           1      2.27%     75.00% |           0      0.00%     75.00% |           1      2.27%     77.27% |           1      2.27%     79.55% |           2      4.55%     84.09% |           0      0.00%     84.09% |           1      2.27%     86.36% |           1      2.27%     88.64% |           3      6.82%     95.45% |           2      4.55%    100.00% (Unspecified)
board.cache_hierarchy.ruby_system.L2Cache_Controller.WB_Data_clean::total           44                       (Unspecified)
board.cache_hierarchy.ruby_system.L2Cache_Controller.Unblock |          35      5.64%      5.64% |          98     15.78%     21.42% |          61      9.82%     31.24% |          46      7.41%     38.65% |          30      4.83%     43.48% |          60      9.66%     53.14% |          21      3.38%     56.52% |          21      3.38%     59.90% |          20      3.22%     63.12% |          39      6.28%     69.40% |          44      7.09%     76.49% |          20      3.22%     79.71% |          29      4.67%     84.38% |          33      5.31%     89.69% |          37      5.96%     95.65% |          27      4.35%    100.00% (Unspecified)
board.cache_hierarchy.ruby_system.L2Cache_Controller.Unblock::total          621                       (Unspecified)
board.cache_hierarchy.ruby_system.L2Cache_Controller.Exclusive_Unblock |       32846     91.64%     91.64% |         234      0.65%     92.30% |         198      0.55%     92.85% |         200      0.56%     93.41% |         243      0.68%     94.08% |         255      0.71%     94.80% |         205      0.57%     95.37% |         204      0.57%     95.94% |         202      0.56%     96.50% |         183      0.51%     97.01% |         199      0.56%     97.57% |         145      0.40%     97.97% |         199      0.56%     98.53% |         187      0.52%     99.05% |         182      0.51%     99.56% |         159      0.44%    100.00% (Unspecified)
board.cache_hierarchy.ruby_system.L2Cache_Controller.Exclusive_Unblock::total        35841                       (Unspecified)
board.cache_hierarchy.ruby_system.L2Cache_Controller.NP.L1_GET_INSTR |          25      6.58%      6.58% |          25      6.58%     13.16% |          26      6.84%     20.00% |          28      7.37%     27.37% |          26      6.84%     34.21% |          25      6.58%     40.79% |          20      5.26%     46.05% |          18      4.74%     50.79% |          20      5.26%     56.05% |          25      6.58%     62.63% |          25      6.58%     69.21% |          22      5.79%     75.00% |          27      7.11%     82.11% |          26      6.84%     88.95% |          20      5.26%     94.21% |          22      5.79%    100.00% (Unspecified)
board.cache_hierarchy.ruby_system.L2Cache_Controller.NP.L1_GET_INSTR::total          380                       (Unspecified)
board.cache_hierarchy.ruby_system.L2Cache_Controller.NP.L1_GETS |           0      0.00%      0.00% |           2      3.17%      3.17% |           0      0.00%      3.17% |           0      0.00%      3.17% |          16     25.40%     28.57% |           1      1.59%     30.16% |           2      3.17%     33.33% |           0      0.00%     33.33% |           1      1.59%     34.92% |          17     26.98%     61.90% |           2      3.17%     65.08% |           0      0.00%     65.08% |           1      1.59%     66.67% |           0      0.00%     66.67% |           4      6.35%     73.02% |          17     26.98%    100.00% (Unspecified)
board.cache_hierarchy.ruby_system.L2Cache_Controller.NP.L1_GETS::total           63                       (Unspecified)
board.cache_hierarchy.ruby_system.L2Cache_Controller.NP.L1_GETX |          37      4.96%      4.96% |          49      6.57%     11.53% |          54      7.24%     18.77% |          54      7.24%     26.01% |          54      7.24%     33.24% |          71      9.52%     42.76% |          54      7.24%     50.00% |          54      7.24%     57.24% |          54      7.24%     64.48% |          37      4.96%     69.44% |          37      4.96%     74.40% |          22      2.95%     77.35% |          39      5.23%     82.57% |          54      7.24%     89.81% |          44      5.90%     95.71% |          32      4.29%    100.00% (Unspecified)
board.cache_hierarchy.ruby_system.L2Cache_Controller.NP.L1_GETX::total          746                       (Unspecified)
board.cache_hierarchy.ruby_system.L2Cache_Controller.SS.L1_GET_INSTR |         112      4.20%      4.20% |         140      5.25%      9.46% |         193      7.24%     16.70% |         220      8.26%     24.95% |         191      7.17%     32.12% |         164      6.15%     38.27% |         194      7.28%     45.55% |         136      5.10%     50.66% |         198      7.43%     58.09% |         192      7.20%     65.29% |         181      6.79%     72.08% |         185      6.94%     79.02% |         172      6.45%     85.48% |         166      6.23%     91.71% |         132      4.95%     96.66% |          89      3.34%    100.00% (Unspecified)
board.cache_hierarchy.ruby_system.L2Cache_Controller.SS.L1_GET_INSTR::total         2665                       (Unspecified)
board.cache_hierarchy.ruby_system.L2Cache_Controller.SS.L1_GETS |           4      1.64%      1.64% |           2      0.82%      2.46% |          17      6.97%      9.43% |          24      9.84%     19.26% |          15      6.15%     25.41% |           0      0.00%     25.41% |          31     12.70%     38.11% |           2      0.82%     38.93% |          12      4.92%     43.85% |          19      7.79%     51.64% |          30     12.30%     63.93% |           1      0.41%     64.34% |          15      6.15%     70.49% |          14      5.74%     76.23% |          30     12.30%     88.52% |          28     11.48%    100.00% (Unspecified)
board.cache_hierarchy.ruby_system.L2Cache_Controller.SS.L1_GETS::total          244                       (Unspecified)
board.cache_hierarchy.ruby_system.L2Cache_Controller.SS.L1_GETX |           0      0.00%      0.00% |           0      0.00%      0.00% |           0      0.00%      0.00% |           0      0.00%      0.00% |           0      0.00%      0.00% |           0      0.00%      0.00% |           0      0.00%      0.00% |           0      0.00%      0.00% |           0      0.00%      0.00% |           0      0.00%      0.00% |           2    100.00%    100.00% |           0      0.00%    100.00% |           0      0.00%    100.00% |           0      0.00%    100.00% |           0      0.00%    100.00% |           0      0.00%    100.00% (Unspecified)
board.cache_hierarchy.ruby_system.L2Cache_Controller.SS.L1_GETX::total            2                       (Unspecified)
board.cache_hierarchy.ruby_system.L2Cache_Controller.SS.L1_UPGRADE |           1      0.44%      0.44% |          65     28.76%     29.20% |          27     11.95%     41.15% |          13      5.75%     46.90% |          14      6.19%     53.10% |          33     14.60%     67.70% |           5      2.21%     69.91% |           5      2.21%     72.12% |           2      0.88%     73.01% |           2      0.88%     73.89% |          25     11.06%     84.96% |           0      0.00%     84.96% |          13      5.75%     90.71% |           3      1.33%     92.04% |          17      7.52%     99.56% |           1      0.44%    100.00% (Unspecified)
board.cache_hierarchy.ruby_system.L2Cache_Controller.SS.L1_UPGRADE::total          226                       (Unspecified)
board.cache_hierarchy.ruby_system.L2Cache_Controller.M.L1_GETS |         109      5.80%      5.80% |         114      6.07%     11.87% |         116      6.18%     18.05% |         131      6.98%     25.03% |         121      6.44%     31.47% |         123      6.55%     38.02% |         121      6.44%     44.46% |         117      6.23%     50.69% |         117      6.23%     56.92% |         115      6.12%     63.05% |         119      6.34%     69.38% |         111      5.91%     75.29% |         119      6.34%     81.63% |         119      6.34%     87.97% |         117      6.23%     94.20% |         109      5.80%    100.00% (Unspecified)
board.cache_hierarchy.ruby_system.L2Cache_Controller.M.L1_GETS::total         1878                       (Unspecified)
board.cache_hierarchy.ruby_system.L2Cache_Controller.M.L1_GETX |           2      4.44%      4.44% |           1      2.22%      6.67% |           1      2.22%      8.89% |           2      4.44%     13.33% |          20     44.44%     57.78% |           0      0.00%     57.78% |           1      2.22%     60.00% |           1      2.22%     62.22% |           1      2.22%     64.44% |           1      2.22%     66.67% |           1      2.22%     68.89% |           1      2.22%     71.11% |          13     28.89%    100.00% |           0      0.00%    100.00% |           0      0.00%    100.00% |           0      0.00%    100.00% (Unspecified)
board.cache_hierarchy.ruby_system.L2Cache_Controller.M.L1_GETX::total           45                       (Unspecified)
board.cache_hierarchy.ruby_system.L2Cache_Controller.MT.L1_GETS |          35      5.64%      5.64% |          98     15.78%     21.42% |          61      9.82%     31.24% |          46      7.41%     38.65% |          30      4.83%     43.48% |          60      9.66%     53.14% |          21      3.38%     56.52% |          21      3.38%     59.90% |          20      3.22%     63.12% |          39      6.28%     69.40% |          44      7.09%     76.49% |          20      3.22%     79.71% |          29      4.67%     84.38% |          33      5.31%     89.69% |          37      5.96%     95.65% |          27      4.35%    100.00% (Unspecified)
board.cache_hierarchy.ruby_system.L2Cache_Controller.MT.L1_GETS::total          621                       (Unspecified)
board.cache_hierarchy.ruby_system.L2Cache_Controller.MT.L1_GETX |       32697     99.44%     99.44% |           3      0.01%     99.45% |           0      0.00%     99.45% |           0      0.00%     99.45% |          18      0.05%     99.50% |          27      0.08%     99.59% |          22      0.07%     99.65% |          27      0.08%     99.74% |          27      0.08%     99.82% |          11      0.03%     99.85% |          13      0.04%     99.89% |          11      0.03%     99.92% |          14      0.04%     99.97% |          11      0.03%    100.00% |           0      0.00%    100.00% |           0      0.00%    100.00% (Unspecified)
board.cache_hierarchy.ruby_system.L2Cache_Controller.MT.L1_GETX::total        32881                       (Unspecified)
board.cache_hierarchy.ruby_system.L2Cache_Controller.MT.L1_PUTX |           8      2.30%      2.30% |          18      5.17%      7.47% |          15      4.31%     11.78% |          31      8.91%     20.69% |          47     13.51%     34.20% |          31      8.91%     43.10% |          30      8.62%     51.72% |          15      4.31%     56.03% |          15      4.31%     60.34% |          15      4.31%     64.66% |          31      8.91%     73.56% |          10      2.87%     76.44% |          29      8.33%     84.77% |          30      8.62%     93.39% |          15      4.31%     97.70% |           8      2.30%    100.00% (Unspecified)
board.cache_hierarchy.ruby_system.L2Cache_Controller.MT.L1_PUTX::total          348                       (Unspecified)
board.cache_hierarchy.ruby_system.L2Cache_Controller.ISS.Mem_Data |           0      0.00%      0.00% |           2      3.17%      3.17% |           0      0.00%      3.17% |           0      0.00%      3.17% |          16     25.40%     28.57% |           1      1.59%     30.16% |           2      3.17%     33.33% |           0      0.00%     33.33% |           1      1.59%     34.92% |          17     26.98%     61.90% |           2      3.17%     65.08% |           0      0.00%     65.08% |           1      1.59%     66.67% |           0      0.00%     66.67% |           4      6.35%     73.02% |          17     26.98%    100.00% (Unspecified)
board.cache_hierarchy.ruby_system.L2Cache_Controller.ISS.Mem_Data::total           63                       (Unspecified)
board.cache_hierarchy.ruby_system.L2Cache_Controller.IS.L1_GET_INSTR |           0      0.00%      0.00% |           0      0.00%      0.00% |           1    100.00%    100.00% |           0      0.00%    100.00% |           0      0.00%    100.00% |           0      0.00%    100.00% |           0      0.00%    100.00% |           0      0.00%    100.00% |           0      0.00%    100.00% |           0      0.00%    100.00% |           0      0.00%    100.00% |           0      0.00%    100.00% |           0      0.00%    100.00% |           0      0.00%    100.00% |           0      0.00%    100.00% |           0      0.00%    100.00% (Unspecified)
board.cache_hierarchy.ruby_system.L2Cache_Controller.IS.L1_GET_INSTR::total            1                       (Unspecified)
board.cache_hierarchy.ruby_system.L2Cache_Controller.IS.Mem_Data |          25      6.58%      6.58% |          25      6.58%     13.16% |          26      6.84%     20.00% |          28      7.37%     27.37% |          26      6.84%     34.21% |          25      6.58%     40.79% |          20      5.26%     46.05% |          18      4.74%     50.79% |          20      5.26%     56.05% |          25      6.58%     62.63% |          25      6.58%     69.21% |          22      5.79%     75.00% |          27      7.11%     82.11% |          26      6.84%     88.95% |          20      5.26%     94.21% |          22      5.79%    100.00% (Unspecified)
board.cache_hierarchy.ruby_system.L2Cache_Controller.IS.Mem_Data::total          380                       (Unspecified)
board.cache_hierarchy.ruby_system.L2Cache_Controller.IM.Mem_Data |          37      4.96%      4.96% |          49      6.57%     11.53% |          54      7.24%     18.77% |          54      7.24%     26.01% |          54      7.24%     33.24% |          71      9.52%     42.76% |          54      7.24%     50.00% |          54      7.24%     57.24% |          54      7.24%     64.48% |          37      4.96%     69.44% |          37      4.96%     74.40% |          22      2.95%     77.35% |          39      5.23%     82.57% |          54      7.24%     89.81% |          44      5.90%     95.71% |          32      4.29%    100.00% (Unspecified)
board.cache_hierarchy.ruby_system.L2Cache_Controller.IM.Mem_Data::total          746                       (Unspecified)
board.cache_hierarchy.ruby_system.L2Cache_Controller.SS_MB.L1_GETS |           0      0.00%      0.00% |           0      0.00%      0.00% |           0      0.00%      0.00% |           0      0.00%      0.00% |           0      0.00%      0.00% |           0      0.00%      0.00% |           1    100.00%    100.00% |           0      0.00%    100.00% |           0      0.00%    100.00% |           0      0.00%    100.00% |           0      0.00%    100.00% |           0      0.00%    100.00% |           0      0.00%    100.00% |           0      0.00%    100.00% |           0      0.00%    100.00% |           0      0.00%    100.00% (Unspecified)
board.cache_hierarchy.ruby_system.L2Cache_Controller.SS_MB.L1_GETS::total            1                       (Unspecified)
board.cache_hierarchy.ruby_system.L2Cache_Controller.SS_MB.L1_GETX |           0      0.00%      0.00% |           1    100.00%    100.00% |           0      0.00%    100.00% |           0      0.00%    100.00% |           0      0.00%    100.00% |           0      0.00%    100.00% |           0      0.00%    100.00% |           0      0.00%    100.00% |           0      0.00%    100.00% |           0      0.00%    100.00% |           0      0.00%    100.00% |           0      0.00%    100.00% |           0      0.00%    100.00% |           0      0.00%    100.00% |           0      0.00%    100.00% |           0      0.00%    100.00% (Unspecified)
board.cache_hierarchy.ruby_system.L2Cache_Controller.SS_MB.L1_GETX::total            1                       (Unspecified)
board.cache_hierarchy.ruby_system.L2Cache_Controller.SS_MB.Exclusive_Unblock |           1      0.44%      0.44% |          65     28.51%     28.95% |          27     11.84%     40.79% |          13      5.70%     46.49% |          14      6.14%     52.63% |          33     14.47%     67.11% |           5      2.19%     69.30% |           5      2.19%     71.49% |           2      0.88%     72.37% |           2      0.88%     73.25% |          27     11.84%     85.09% |           0      0.00%     85.09% |          13      5.70%     90.79% |           3      1.32%     92.11% |          17      7.46%     99.56% |           1      0.44%    100.00% (Unspecified)
board.cache_hierarchy.ruby_system.L2Cache_Controller.SS_MB.Exclusive_Unblock::total          228                       (Unspecified)
board.cache_hierarchy.ruby_system.L2Cache_Controller.MT_MB.L1_GETS |           0      0.00%      0.00% |           0      0.00%      0.00% |           0      0.00%      0.00% |           0      0.00%      0.00% |           1    100.00%    100.00% |           0      0.00%    100.00% |           0      0.00%    100.00% |           0      0.00%    100.00% |           0      0.00%    100.00% |           0      0.00%    100.00% |           0      0.00%    100.00% |           0      0.00%    100.00% |           0      0.00%    100.00% |           0      0.00%    100.00% |           0      0.00%    100.00% |           0      0.00%    100.00% (Unspecified)
board.cache_hierarchy.ruby_system.L2Cache_Controller.MT_MB.L1_GETS::total            1                       (Unspecified)
board.cache_hierarchy.ruby_system.L2Cache_Controller.MT_MB.L1_GETX |      378553    100.00%    100.00% |           0      0.00%    100.00% |           0      0.00%    100.00% |           0      0.00%    100.00% |           0      0.00%    100.00% |           0      0.00%    100.00% |           0      0.00%    100.00% |           0      0.00%    100.00% |           0      0.00%    100.00% |           0      0.00%    100.00% |           0      0.00%    100.00% |           0      0.00%    100.00% |           0      0.00%    100.00% |           0      0.00%    100.00% |           0      0.00%    100.00% |           0      0.00%    100.00% (Unspecified)
board.cache_hierarchy.ruby_system.L2Cache_Controller.MT_MB.L1_GETX::total       378553                       (Unspecified)
board.cache_hierarchy.ruby_system.L2Cache_Controller.MT_MB.Exclusive_Unblock |       32845     92.23%     92.23% |         169      0.47%     92.70% |         171      0.48%     93.18% |         187      0.53%     93.71% |         229      0.64%     94.35% |         222      0.62%     94.97% |         200      0.56%     95.54% |         199      0.56%     96.09% |         200      0.56%     96.66% |         181      0.51%     97.16% |         172      0.48%     97.65% |         145      0.41%     98.05% |         186      0.52%     98.58% |         184      0.52%     99.09% |         165      0.46%     99.56% |         158      0.44%    100.00% (Unspecified)
board.cache_hierarchy.ruby_system.L2Cache_Controller.MT_MB.Exclusive_Unblock::total        35613                       (Unspecified)
board.cache_hierarchy.ruby_system.L2Cache_Controller.MT_IIB.L1_GETS |           0      0.00%      0.00% |           0      0.00%      0.00% |           0      0.00%      0.00% |           0      0.00%      0.00% |           0      0.00%      0.00% |           0      0.00%      0.00% |           0      0.00%      0.00% |           0      0.00%      0.00% |           0      0.00%      0.00% |           0      0.00%      0.00% |           1    100.00%    100.00% |           0      0.00%    100.00% |           0      0.00%    100.00% |           0      0.00%    100.00% |           0      0.00%    100.00% |           0      0.00%    100.00% (Unspecified)
board.cache_hierarchy.ruby_system.L2Cache_Controller.MT_IIB.L1_GETS::total            1                       (Unspecified)
board.cache_hierarchy.ruby_system.L2Cache_Controller.MT_IIB.WB_Data |          22      4.14%      4.14% |          71     13.35%     17.48% |          60     11.28%     28.76% |          28      5.26%     34.02% |          27      5.08%     39.10% |          59     11.09%     50.19% |          19      3.57%     53.76% |          20      3.76%     57.52% |          19      3.57%     61.09% |          38      7.14%     68.23% |          31      5.83%     74.06% |          20      3.76%     77.82% |          28      5.26%     83.08% |          32      6.02%     89.10% |          34      6.39%     95.49% |          24      4.51%    100.00% (Unspecified)
board.cache_hierarchy.ruby_system.L2Cache_Controller.MT_IIB.WB_Data::total          532                       (Unspecified)
board.cache_hierarchy.ruby_system.L2Cache_Controller.MT_IIB.WB_Data_clean |          12     42.86%     42.86% |           0      0.00%     42.86% |           1      3.57%     46.43% |           2      7.14%     53.57% |           1      3.57%     57.14% |           1      3.57%     60.71% |           1      3.57%     64.29% |           0      0.00%     64.29% |           1      3.57%     67.86% |           1      3.57%     71.43% |           2      7.14%     78.57% |           0      0.00%     78.57% |           1      3.57%     82.14% |           1      3.57%     85.71% |           2      7.14%     92.86% |           2      7.14%    100.00% (Unspecified)
board.cache_hierarchy.ruby_system.L2Cache_Controller.MT_IIB.WB_Data_clean::total           28                       (Unspecified)
board.cache_hierarchy.ruby_system.L2Cache_Controller.MT_IIB.Unblock |           1      1.64%      1.64% |          27     44.26%     45.90% |           0      0.00%     45.90% |          16     26.23%     72.13% |           2      3.28%     75.41% |           0      0.00%     75.41% |           1      1.64%     77.05% |           1      1.64%     78.69% |           0      0.00%     78.69% |           0      0.00%     78.69% |          11     18.03%     96.72% |           0      0.00%     96.72% |           0      0.00%     96.72% |           0      0.00%     96.72% |           1      1.64%     98.36% |           1      1.64%    100.00% (Unspecified)
board.cache_hierarchy.ruby_system.L2Cache_Controller.MT_IIB.Unblock::total           61                       (Unspecified)
board.cache_hierarchy.ruby_system.L2Cache_Controller.MT_IB.WB_Data |           1      2.22%      2.22% |          27     60.00%     62.22% |           0      0.00%     62.22% |           1      2.22%     64.44% |           2      4.44%     68.89% |           0      0.00%     68.89% |           1      2.22%     71.11% |           1      2.22%     73.33% |           0      0.00%     73.33% |           0      0.00%     73.33% |          11     24.44%     97.78% |           0      0.00%     97.78% |           0      0.00%     97.78% |           0      0.00%     97.78% |           0      0.00%     97.78% |           1      2.22%    100.00% (Unspecified)
board.cache_hierarchy.ruby_system.L2Cache_Controller.MT_IB.WB_Data::total           45                       (Unspecified)
board.cache_hierarchy.ruby_system.L2Cache_Controller.MT_IB.WB_Data_clean |           0      0.00%      0.00% |           0      0.00%      0.00% |           0      0.00%      0.00% |          15     93.75%     93.75% |           0      0.00%     93.75% |           0      0.00%     93.75% |           0      0.00%     93.75% |           0      0.00%     93.75% |           0      0.00%     93.75% |           0      0.00%     93.75% |           0      0.00%     93.75% |           0      0.00%     93.75% |           0      0.00%     93.75% |           0      0.00%     93.75% |           1      6.25%    100.00% |           0      0.00%    100.00% (Unspecified)
board.cache_hierarchy.ruby_system.L2Cache_Controller.MT_IB.WB_Data_clean::total           16                       (Unspecified)
board.cache_hierarchy.ruby_system.L2Cache_Controller.MT_SB.Unblock |          34      6.07%      6.07% |          71     12.68%     18.75% |          61     10.89%     29.64% |          30      5.36%     35.00% |          28      5.00%     40.00% |          60     10.71%     50.71% |          20      3.57%     54.29% |          20      3.57%     57.86% |          20      3.57%     61.43% |          39      6.96%     68.39% |          33      5.89%     74.29% |          20      3.57%     77.86% |          29      5.18%     83.04% |          33      5.89%     88.93% |          36      6.43%     95.36% |          26      4.64%    100.00% (Unspecified)
board.cache_hierarchy.ruby_system.L2Cache_Controller.MT_SB.Unblock::total          560                       (Unspecified)
board.cache_hierarchy.ruby_system.RequestType.LD.latency_hist_seqr::bucket_size          128                       (Unspecified)
board.cache_hierarchy.ruby_system.RequestType.LD.latency_hist_seqr::max_bucket         1279                       (Unspecified)
board.cache_hierarchy.ruby_system.RequestType.LD.latency_hist_seqr::samples       317449                       (Unspecified)
board.cache_hierarchy.ruby_system.RequestType.LD.latency_hist_seqr::mean     1.219698                       (Unspecified)
board.cache_hierarchy.ruby_system.RequestType.LD.latency_hist_seqr::gmean     1.027938                       (Unspecified)
board.cache_hierarchy.ruby_system.RequestType.LD.latency_hist_seqr::stdev     4.253092                       (Unspecified)
board.cache_hierarchy.ruby_system.RequestType.LD.latency_hist_seqr |      317386     99.98%     99.98% |          61      0.02%    100.00% |           0      0.00%    100.00% |           0      0.00%    100.00% |           0      0.00%    100.00% |           0      0.00%    100.00% |           0      0.00%    100.00% |           0      0.00%    100.00% |           1      0.00%    100.00% |           1      0.00%    100.00% (Unspecified)
board.cache_hierarchy.ruby_system.RequestType.LD.latency_hist_seqr::total       317449                       (Unspecified)
board.cache_hierarchy.ruby_system.RequestType.LD.hit_latency_hist_seqr::bucket_size            1                       (Unspecified)
board.cache_hierarchy.ruby_system.RequestType.LD.hit_latency_hist_seqr::max_bucket            9                       (Unspecified)
board.cache_hierarchy.ruby_system.RequestType.LD.hit_latency_hist_seqr::samples       314643                       (Unspecified)
board.cache_hierarchy.ruby_system.RequestType.LD.hit_latency_hist_seqr::mean     1.000010                       (Unspecified)
board.cache_hierarchy.ruby_system.RequestType.LD.hit_latency_hist_seqr::gmean     1.000007                       (Unspecified)
board.cache_hierarchy.ruby_system.RequestType.LD.hit_latency_hist_seqr::stdev     0.003088                       (Unspecified)
board.cache_hierarchy.ruby_system.RequestType.LD.hit_latency_hist_seqr |           0      0.00%      0.00% |      314640    100.00%    100.00% |           3      0.00%    100.00% |           0      0.00%    100.00% |           0      0.00%    100.00% |           0      0.00%    100.00% |           0      0.00%    100.00% |           0      0.00%    100.00% |           0      0.00%    100.00% |           0      0.00%    100.00% (Unspecified)
board.cache_hierarchy.ruby_system.RequestType.LD.hit_latency_hist_seqr::total       314643                       (Unspecified)
board.cache_hierarchy.ruby_system.RequestType.LD.miss_latency_hist_seqr::bucket_size          128                       (Unspecified)
board.cache_hierarchy.ruby_system.RequestType.LD.miss_latency_hist_seqr::max_bucket         1279                       (Unspecified)
board.cache_hierarchy.ruby_system.RequestType.LD.miss_latency_hist_seqr::samples         2806                       (Unspecified)
[...]
board.processor.cores9.core.executeStats0.numLoadInsts        52047                       # Number of load instructions executed (Count)
board.processor.cores9.core.executeStats0.numStoreInsts        16966                       # Number of stores executed (Count)
board.processor.cores9.core.executeStats0.instRate     0.237734                       # Inst execution rate ((Count/Cycle))
board.processor.cores9.core.executeStats0.numCCRegReads        33143                       # Number of times the CC registers were read (Count)
board.processor.cores9.core.executeStats0.numCCRegWrites        46454                       # Number of times the CC registers were written (Count)
board.processor.cores9.core.executeStats0.numFpRegReads           26                       # Number of times the floating registers were read (Count)
board.processor.cores9.core.executeStats0.numFpRegWrites           12                       # Number of times the floating registers were written (Count)
board.processor.cores9.core.executeStats0.numIntRegReads       267146                       # Number of times the integer registers were read (Count)
board.processor.cores9.core.executeStats0.numIntRegWrites       174466                       # Number of times the integer registers were written (Count)
board.processor.cores9.core.executeStats0.numMemRefs        69013                       # Number of memory refs (Count)
board.processor.cores9.core.executeStats0.numMiscRegReads        99076                       # Number of times the Misc registers were read (Count)
board.processor.cores9.core.executeStats0.numMiscRegWrites            1                       # Number of times the Misc registers were written (Count)
board.processor.cores9.core.executeStats0.numVecAluAccesses            0                       # Number of vector alu accesses (Count)
board.processor.cores9.core.executeStats0.numDiscardedOps            0                       # Number of ops (including micro ops) which were discarded before commit (Count)
board.processor.cores9.core.fetch.predictedBranches        18998                       # Number of branches that fetch has predicted taken (Count)
board.processor.cores9.core.fetch.cycles       877510                       # Number of cycles fetch has run and was not squashing or blocked (Cycle)
board.processor.cores9.core.fetch.squashCycles         4582                       # Number of cycles fetch has spent squashing (Cycle)
board.processor.cores9.core.fetch.miscStallCycles           22                       # Number of cycles fetch has spent waiting on interrupts, or bad addresses, or out of MSHRs (Cycle)
board.processor.cores9.core.fetch.pendingTrapStallCycles          170                       # Number of stall cycles due to pending traps (Cycle)
board.processor.cores9.core.fetch.cacheLines        29531                       # Number of cache lines fetched (Count)
board.processor.cores9.core.fetch.icacheSquashes           85                       # Number of outstanding Icache misses that were squashed (Count)
board.processor.cores9.core.fetch.nisnDist::samples       914104                       # Number of instructions fetched each cycle (Total) (Count)
board.processor.cores9.core.fetch.nisnDist::mean     0.439516                       # Number of instructions fetched each cycle (Total) (Count)
board.processor.cores9.core.fetch.nisnDist::stdev     1.716831                       # Number of instructions fetched each cycle (Total) (Count)
board.processor.cores9.core.fetch.nisnDist::underflows            0      0.00%      0.00% # Number of instructions fetched each cycle (Total) (Count)
board.processor.cores9.core.fetch.nisnDist::0       848880     92.86%     92.86% # Number of instructions fetched each cycle (Total) (Count)
board.processor.cores9.core.fetch.nisnDist::1         8386      0.92%     93.78% # Number of instructions fetched each cycle (Total) (Count)
board.processor.cores9.core.fetch.nisnDist::2           35      0.00%     93.79% # Number of instructions fetched each cycle (Total) (Count)
board.processor.cores9.core.fetch.nisnDist::3         4193      0.46%     94.24% # Number of instructions fetched each cycle (Total) (Count)
board.processor.cores9.core.fetch.nisnDist::4         2121      0.23%     94.48% # Number of instructions fetched each cycle (Total) (Count)
board.processor.cores9.core.fetch.nisnDist::5         2335      0.26%     94.73% # Number of instructions fetched each cycle (Total) (Count)
board.processor.cores9.core.fetch.nisnDist::6        10212      1.12%     95.85% # Number of instructions fetched each cycle (Total) (Count)
board.processor.cores9.core.fetch.nisnDist::7         4239      0.46%     96.31% # Number of instructions fetched each cycle (Total) (Count)
board.processor.cores9.core.fetch.nisnDist::8        33703      3.69%    100.00% # Number of instructions fetched each cycle (Total) (Count)
board.processor.cores9.core.fetch.nisnDist::overflows            0      0.00%    100.00% # Number of instructions fetched each cycle (Total) (Count)
board.processor.cores9.core.fetch.nisnDist::min_value            0                       # Number of instructions fetched each cycle (Total) (Count)
board.processor.cores9.core.fetch.nisnDist::max_value            8                       # Number of instructions fetched each cycle (Total) (Count)
board.processor.cores9.core.fetch.nisnDist::total       914104                       # Number of instructions fetched each cycle (Total) (Count)
board.processor.cores9.core.fetchStats0.numInsts       228275                       # Number of instructions fetched (thread level) (Count)
board.processor.cores9.core.fetchStats0.numOps            0                       # Number of ops (including micro ops) fetched (thread level) (Count)
board.processor.cores9.core.fetchStats0.fetchRate     0.249672                       # Number of inst fetches per cycle ((Count/Cycle))
board.processor.cores9.core.fetchStats0.numBranches        25795                       # Number of branches fetched (Count)
board.processor.cores9.core.fetchStats0.branchRate     0.028213                       # Number of branch fetches per cycle (Ratio)
board.processor.cores9.core.fetchStats0.icacheStallCycles        34111                       # ICache total stall cycles (Cycle)
board.processor.cores9.core.fetchStats0.numFetchSuspends            0                       # Number of times Execute suspended instruction fetching (Count)
board.processor.cores9.core.iew.idleCycles            0                       # Number of cycles IEW is idle (Cycle)
board.processor.cores9.core.iew.squashCycles         2176                       # Number of cycles IEW is squashing (Cycle)
board.processor.cores9.core.iew.blockCycles       790652                       # Number of cycles IEW is blocking (Cycle)
board.processor.cores9.core.iew.unblockCycles         2203                       # Number of cycles IEW is unblocking (Cycle)
board.processor.cores9.core.iew.dispatchedInsts       309120                       # Number of instructions dispatched to IQ (Count)
board.processor.cores9.core.iew.dispSquashedInsts            2                       # Number of squashed instructions skipped by dispatch (Count)
board.processor.cores9.core.iew.dispLoadInsts        81039                       # Number of dispatched load instructions (Count)
board.processor.cores9.core.iew.dispStoreInsts        25278                       # Number of dispatched store instructions (Count)
board.processor.cores9.core.iew.dispNonSpecInsts         4124                       # Number of dispatched non-speculative instructions (Count)
board.processor.cores9.core.iew.iqFullEvents           27                       # Number of times the IQ has become full, causing a stall (Count)
board.processor.cores9.core.iew.lsqFullEvents            1                       # Number of times the LSQ has become full, causing a stall (Count)
board.processor.cores9.core.iew.memOrderViolationEvents         2054                       # Number of memory order violations (Count)
board.processor.cores9.core.iew.predictedTakenIncorrect            7                       # Number of branches that were predicted taken incorrectly (Count)
board.processor.cores9.core.iew.predictedNotTakenIncorrect          123                       # Number of branches that were predicted not taken incorrectly (Count)
board.processor.cores9.core.iew.branchMispredicts          130                       # Number of branch mispredicts detected at execute (Count)
board.processor.cores9.core.iew.instsToCommit       217321                       # Cumulative count of insts sent to commit (Count)
board.processor.cores9.core.iew.writebackCount       217208                       # Cumulative count of insts written-back (Count)
board.processor.cores9.core.iew.producerInst       151495                       # Number of instructions producing a value (Count)
board.processor.cores9.core.iew.consumerInst       245984                       # Number of instructions consuming a value (Count)
board.processor.cores9.core.iew.wbRate       0.237568                       # Insts written-back per cycle ((Count/Cycle))
board.processor.cores9.core.iew.wbFanout     0.615873                       # Average fanout of values written-back ((Count/Count))
board.processor.cores9.core.interrupts.clk_domain.clock         5328                       # Clock period in ticks (Tick)
board.processor.cores9.core.lsq0.forwLoads         4289                       # Number of loads that had data forwarded from stores (Count)
board.processor.cores9.core.lsq0.squashedLoads        49748                       # Number of loads squashed (Count)
board.processor.cores9.core.lsq0.ignoredResponses            1                       # Number of memory responses ignored because the instruction is squashed (Count)
board.processor.cores9.core.lsq0.memOrderViolation         2054                       # Number of memory ordering violations (Count)
board.processor.cores9.core.lsq0.squashedStores        12549                       # Number of stores squashed (Count)
board.processor.cores9.core.lsq0.rescheduledLoads            0                       # Number of loads that were rescheduled (Count)
board.processor.cores9.core.lsq0.blockedByCache            0                       # Number of times an access to memory failed due to the cache being blocked (Count)
board.processor.cores9.core.lsq0.loadToUse::samples        31291                       # Distribution of cycle latency between the first time a load is issued and its completion (Unspecified)
board.processor.cores9.core.lsq0.loadToUse::mean    26.993225                       # Distribution of cycle latency between the first time a load is issued and its completion (Unspecified)
board.processor.cores9.core.lsq0.loadToUse::stdev    91.982151                       # Distribution of cycle latency between the first time a load is issued and its completion (Unspecified)
board.processor.cores9.core.lsq0.loadToUse::0-9        29078     92.93%     92.93% # Distribution of cycle latency between the first time a load is issued and its completion (Unspecified)
board.processor.cores9.core.lsq0.loadToUse::10-19            9      0.03%     92.96% # Distribution of cycle latency between the first time a load is issued and its completion (Unspecified)
board.processor.cores9.core.lsq0.loadToUse::20-29          140      0.45%     93.40% # Distribution of cycle latency between the first time a load is issued and its completion (Unspecified)
board.processor.cores9.core.lsq0.loadToUse::30-39           12      0.04%     93.44% # Distribution of cycle latency between the first time a load is issued and its completion (Unspecified)
board.processor.cores9.core.lsq0.loadToUse::100-109            1      0.00%     93.45% # Distribution of cycle latency between the first time a load is issued and its completion (Unspecified)
board.processor.cores9.core.lsq0.loadToUse::140-149            3      0.01%     93.45% # Distribution of cycle latency between the first time a load is issued and its completion (Unspecified)
board.processor.cores9.core.lsq0.loadToUse::160-169           24      0.08%     93.53% # Distribution of cycle latency between the first time a load is issued and its completion (Unspecified)
board.processor.cores9.core.lsq0.loadToUse::170-179           11      0.04%     93.57% # Distribution of cycle latency between the first time a load is issued and its completion (Unspecified)
board.processor.cores9.core.lsq0.loadToUse::190-199           52      0.17%     93.73% # Distribution of cycle latency between the first time a load is issued and its completion (Unspecified)
board.processor.cores9.core.lsq0.loadToUse::200-209            4      0.01%     93.75% # Distribution of cycle latency between the first time a load is issued and its completion (Unspecified)
board.processor.cores9.core.lsq0.loadToUse::220-229           50      0.16%     93.91% # Distribution of cycle latency between the first time a load is issued and its completion (Unspecified)
board.processor.cores9.core.lsq0.loadToUse::230-239            3      0.01%     93.92% # Distribution of cycle latency between the first time a load is issued and its completion (Unspecified)
board.processor.cores9.core.lsq0.loadToUse::240-249            1      0.00%     93.92% # Distribution of cycle latency between the first time a load is issued and its completion (Unspecified)
board.processor.cores9.core.lsq0.loadToUse::250-259           57      0.18%     94.10% # Distribution of cycle latency between the first time a load is issued and its completion (Unspecified)
board.processor.cores9.core.lsq0.loadToUse::260-269            5      0.02%     94.12% # Distribution of cycle latency between the first time a load is issued and its completion (Unspecified)
board.processor.cores9.core.lsq0.loadToUse::280-289           65      0.21%     94.32% # Distribution of cycle latency between the first time a load is issued and its completion (Unspecified)
board.processor.cores9.core.lsq0.loadToUse::290-299            6      0.02%     94.34% # Distribution of cycle latency between the first time a load is issued and its completion (Unspecified)
board.processor.cores9.core.lsq0.loadToUse::overflows         1770      5.66%    100.00% # Distribution of cycle latency between the first time a load is issued and its completion (Unspecified)
board.processor.cores9.core.lsq0.loadToUse::min_value            2                       # Distribution of cycle latency between the first time a load is issued and its completion (Unspecified)
board.processor.cores9.core.lsq0.loadToUse::max_value          400                       # Distribution of cycle latency between the first time a load is issued and its completion (Unspecified)
board.processor.cores9.core.lsq0.loadToUse::total        31291                       # Distribution of cycle latency between the first time a load is issued and its completion (Unspecified)
board.processor.cores9.core.mmu.dtb.rdAccesses        52047                       # TLB accesses on read requests (Count)
board.processor.cores9.core.mmu.dtb.wrAccesses        16966                       # TLB accesses on write requests (Count)
board.processor.cores9.core.mmu.dtb.rdMisses           68                       # TLB misses on read requests (Count)
board.processor.cores9.core.mmu.dtb.wrMisses           13                       # TLB misses on write requests (Count)
board.processor.cores9.core.mmu.dtb.walker.power_state.pwrStateResidencyTicks::UNDEFINED    573131628                       # Cumulative time (in ticks) in various power states (Tick)
board.processor.cores9.core.mmu.itb.rdAccesses            0                       # TLB accesses on read requests (Count)
board.processor.cores9.core.mmu.itb.wrAccesses        29557                       # TLB accesses on write requests (Count)
board.processor.cores9.core.mmu.itb.rdMisses            0                       # TLB misses on read requests (Count)
board.processor.cores9.core.mmu.itb.wrMisses           68                       # TLB misses on write requests (Count)
board.processor.cores9.core.mmu.itb.walker.power_state.pwrStateResidencyTicks::UNDEFINED    573131628                       # Cumulative time (in ticks) in various power states (Tick)
board.processor.cores9.core.power_state.pwrStateResidencyTicks::ON    573131628                       # Cumulative time (in ticks) in various power states (Tick)
board.processor.cores9.core.rename.squashCycles         2176                       # Number of cycles rename is squashing (Cycle)
board.processor.cores9.core.rename.idleCycles        23903                       # Number of cycles rename is idle (Cycle)
board.processor.cores9.core.rename.blockCycles       815845                       # Number of cycles rename is blocking (Cycle)
board.processor.cores9.core.rename.serializeStallCycles            0                       # count of cycles rename stalled for serializing inst (Cycle)
board.processor.cores9.core.rename.runCycles        42233                       # Number of cycles rename is running (Cycle)
board.processor.cores9.core.rename.unblockCycles        29947                       # Number of cycles rename is unblocking (Cycle)
board.processor.cores9.core.rename.renamedInsts       325894                       # Number of instructions processed by rename (Count)
board.processor.cores9.core.rename.IQFullEvents        29260                       # Number of times rename has blocked due to IQ full (Count)
board.processor.cores9.core.rename.LQFullEvents          112                       # Number of times rename has blocked due to LQ full (Count)
board.processor.cores9.core.rename.SQFullEvents          563                       # Number of times rename has blocked due to SQ full (Count)
board.processor.cores9.core.rename.renamedOperands       468618                       # Number of destination operands rename has renamed (Count)
board.processor.cores9.core.rename.lookups       962981                       # Number of register rename lookups that rename has made (Count)
board.processor.cores9.core.rename.intLookups       430145                       # Number of integer rename lookups (Count)
board.processor.cores9.core.rename.fpLookups           26                       # Number of floating rename lookups (Count)
board.processor.cores9.core.rename.committedMaps       179978                       # Number of HB maps that are committed (Count)
board.processor.cores9.core.rename.undoneMaps       288640                       # Number of HB maps that are undone due to squashing (Count)
board.processor.cores9.core.rename.serializing            0                       # count of serializing insts renamed (Count)
board.processor.cores9.core.rename.tempSerializing            0                       # count of temporary serializing insts renamed (Count)
board.processor.cores9.core.rename.skidInsts        50534                       # count of insts added to the skid buffer (Count)
board.processor.cores9.core.rob.reads         1195621                       # The number of ROB reads (Count)
board.processor.cores9.core.rob.writes         640949                       # The number of ROB writes (Count)
board.processor.cores9.core.thread_0.numInsts        71588                       # Number of Instructions committed (Count)
board.processor.cores9.core.thread_0.numOps       127035                       # Number of Ops committed (Count)
board.processor.cores9.core.thread_0.numMemRefs            0                       # Number of Memory References (Count)
board.workload.inst.arm                             0                       # number of arm instructions executed (Count)
board.workload.inst.quiesce                         0                       # number of quiesce instructions executed (Count)

---------- End Simulation Statistics   ----------
