
---------- Begin Simulation Statistics ----------
simSeconds                                   0.004610                       # Number of seconds simulated (Second)
simTicks                                   4609589500                       # Number of ticks simulated (Tick)
finalTick                                  4658886500                       # Number of ticks from beginning of simulation (restored from checkpoints and never reset) (Tick)
simFreq                                  1000000000000                       # The number of ticks per simulated second ((Tick/Second))
hostSeconds                                     55.41                       # Real time elapsed on the host (Second)
hostTickRate                                 83187446                       # The number of ticks simulated per host second (ticks/s) ((Tick/Second))
hostMemory                                    1330800                       # Number of bytes of host memory used (Byte)
simInsts                                     12650548                       # Number of instructions simulated (Count)
simOps                                       12650556                       # Number of ops (including micro ops) simulated (Count)
hostInstRate                                   228299                       # Simulator instruction rate (inst/s) ((Count/Second))
hostOpRate                                     228299                       # Simulator op (including micro ops) rate (op/s) ((Count/Second))
board.cache_hierarchy.ruby_system.delayHistogram::bucket_size            1                       # delay histogram for all message (Unspecified)
board.cache_hierarchy.ruby_system.delayHistogram::max_bucket            9                       # delay histogram for all message (Unspecified)
board.cache_hierarchy.ruby_system.delayHistogram::samples          663                       # delay histogram for all message (Unspecified)
board.cache_hierarchy.ruby_system.delayHistogram::mean     0.518854                       # delay histogram for all message (Unspecified)
board.cache_hierarchy.ruby_system.delayHistogram::stdev     1.971670                       # delay histogram for all message (Unspecified)
board.cache_hierarchy.ruby_system.delayHistogram |         620     93.51%     93.51% |           0      0.00%     93.51% |           0      0.00%     93.51% |           0      0.00%     93.51% |           0      0.00%     93.51% |           0      0.00%     93.51% |           0      0.00%     93.51% |           0      0.00%     93.51% |          43      6.49%    100.00% |           0      0.00%    100.00% # delay histogram for all message (Unspecified)
board.cache_hierarchy.ruby_system.delayHistogram::total          663                       # delay histogram for all message (Unspecified)
board.cache_hierarchy.ruby_system.m_outstandReqHistSeqr::bucket_size            2                       (Unspecified)
board.cache_hierarchy.ruby_system.m_outstandReqHistSeqr::max_bucket           19                       (Unspecified)
board.cache_hierarchy.ruby_system.m_outstandReqHistSeqr::samples      4741356                       (Unspecified)
board.cache_hierarchy.ruby_system.m_outstandReqHistSeqr::mean     1.437882                       (Unspecified)
board.cache_hierarchy.ruby_system.m_outstandReqHistSeqr::gmean     1.334344                       (Unspecified)
board.cache_hierarchy.ruby_system.m_outstandReqHistSeqr::stdev     0.611196                       (Unspecified)
board.cache_hierarchy.ruby_system.m_outstandReqHistSeqr |     2898012     61.12%     61.12% |     1826406     38.52%     99.64% |       15679      0.33%     99.97% |         248      0.01%     99.98% |         130      0.00%     99.98% |         373      0.01%     99.99% |         129      0.00%     99.99% |         375      0.01%    100.00% |           4      0.00%    100.00% |           0      0.00%    100.00% (Unspecified)
board.cache_hierarchy.ruby_system.m_outstandReqHistSeqr::total      4741356                       (Unspecified)
board.cache_hierarchy.ruby_system.m_latencyHistSeqr::bucket_size          128                       (Unspecified)
board.cache_hierarchy.ruby_system.m_latencyHistSeqr::max_bucket         1279                       (Unspecified)
board.cache_hierarchy.ruby_system.m_latencyHistSeqr::samples      5324711                       (Unspecified)
board.cache_hierarchy.ruby_system.m_latencyHistSeqr::mean     1.112161                       (Unspecified)
board.cache_hierarchy.ruby_system.m_latencyHistSeqr::gmean     1.079018                       (Unspecified)
board.cache_hierarchy.ruby_system.m_latencyHistSeqr::stdev     0.696682                       (Unspecified)
board.cache_hierarchy.ruby_system.m_latencyHistSeqr |     5324702    100.00%    100.00% |           8      0.00%    100.00% |           0      0.00%    100.00% |           0      0.00%    100.00% |           0      0.00%    100.00% |           0      0.00%    100.00% |           1      0.00%    100.00% |           0      0.00%    100.00% |           0      0.00%    100.00% |           0      0.00%    100.00% (Unspecified)
board.cache_hierarchy.ruby_system.m_latencyHistSeqr::total      5324711                       (Unspecified)
board.cache_hierarchy.ruby_system.m_hitLatencyHistSeqr::bucket_size            1                       (Unspecified)
board.cache_hierarchy.ruby_system.m_hitLatencyHistSeqr::max_bucket            9                       (Unspecified)
board.cache_hierarchy.ruby_system.m_hitLatencyHistSeqr::samples      5324582                       (Unspecified)
board.cache_hierarchy.ruby_system.m_hitLatencyHistSeqr::mean     1.109559                       (Unspecified)
board.cache_hierarchy.ruby_system.m_hitLatencyHistSeqr::gmean     1.078898                       (Unspecified)
board.cache_hierarchy.ruby_system.m_hitLatencyHistSeqr::stdev     0.312339                       (Unspecified)
board.cache_hierarchy.ruby_system.m_hitLatencyHistSeqr |           0      0.00%      0.00% |     4741227     89.04%     89.04% |      583355     10.96%    100.00% |           0      0.00%    100.00% |           0      0.00%    100.00% |           0      0.00%    100.00% |           0      0.00%    100.00% |           0      0.00%    100.00% |           0      0.00%    100.00% |           0      0.00%    100.00% (Unspecified)
board.cache_hierarchy.ruby_system.m_hitLatencyHistSeqr::total      5324582                       (Unspecified)
board.cache_hierarchy.ruby_system.m_missLatencyHistSeqr::bucket_size          128                       (Unspecified)
board.cache_hierarchy.ruby_system.m_missLatencyHistSeqr::max_bucket         1279                       (Unspecified)
board.cache_hierarchy.ruby_system.m_missLatencyHistSeqr::samples          129                       (Unspecified)
board.cache_hierarchy.ruby_system.m_missLatencyHistSeqr::mean   108.519380                       (Unspecified)
board.cache_hierarchy.ruby_system.m_missLatencyHistSeqr::gmean   103.327188                       (Unspecified)
board.cache_hierarchy.ruby_system.m_missLatencyHistSeqr::stdev    67.126874                       (Unspecified)
board.cache_hierarchy.ruby_system.m_missLatencyHistSeqr |         120     93.02%     93.02% |           8      6.20%     99.22% |           0      0.00%     99.22% |           0      0.00%     99.22% |           0      0.00%     99.22% |           0      0.00%     99.22% |           1      0.78%    100.00% |           0      0.00%    100.00% |           0      0.00%    100.00% |           0      0.00%    100.00% (Unspecified)
board.cache_hierarchy.ruby_system.m_missLatencyHistSeqr::total          129                       (Unspecified)
board.cache_hierarchy.ruby_system.delayVCHist.vnet_0::bucket_size            1                       # delay histogram for vnet_0 (Unspecified)
board.cache_hierarchy.ruby_system.delayVCHist.vnet_0::max_bucket            9                       # delay histogram for vnet_0 (Unspecified)
board.cache_hierarchy.ruby_system.delayVCHist.vnet_0::samples          332                       # delay histogram for vnet_0 (Unspecified)
board.cache_hierarchy.ruby_system.delayVCHist.vnet_0::mean     1.036145                       # delay histogram for vnet_0 (Unspecified)
board.cache_hierarchy.ruby_system.delayVCHist.vnet_0::stdev     2.690234                       # delay histogram for vnet_0 (Unspecified)
board.cache_hierarchy.ruby_system.delayVCHist.vnet_0 |         289     87.05%     87.05% |           0      0.00%     87.05% |           0      0.00%     87.05% |           0      0.00%     87.05% |           0      0.00%     87.05% |           0      0.00%     87.05% |           0      0.00%     87.05% |           0      0.00%     87.05% |          43     12.95%    100.00% |           0      0.00%    100.00% # delay histogram for vnet_0 (Unspecified)
board.cache_hierarchy.ruby_system.delayVCHist.vnet_0::total          332                       # delay histogram for vnet_0 (Unspecified)
board.cache_hierarchy.ruby_system.delayVCHist.vnet_1::bucket_size            1                       # delay histogram for vnet_1 (Unspecified)
board.cache_hierarchy.ruby_system.delayVCHist.vnet_1::max_bucket            9                       # delay histogram for vnet_1 (Unspecified)
board.cache_hierarchy.ruby_system.delayVCHist.vnet_1::samples          331                       # delay histogram for vnet_1 (Unspecified)
board.cache_hierarchy.ruby_system.delayVCHist.vnet_1 |         331    100.00%    100.00% |           0      0.00%    100.00% |           0      0.00%    100.00% |           0      0.00%    100.00% |           0      0.00%    100.00% |           0      0.00%    100.00% |           0      0.00%    100.00% |           0      0.00%    100.00% |           0      0.00%    100.00% |           0      0.00%    100.00% # delay histogram for vnet_1 (Unspecified)
board.cache_hierarchy.ruby_system.delayVCHist.vnet_1::total          331                       # delay histogram for vnet_1 (Unspecified)
board.cache_hierarchy.ruby_system.Directory_Controller.Fetch |          64     50.00%     50.00% |          64     50.00%    100.00% (Unspecified)
board.cache_hierarchy.ruby_system.Directory_Controller.Fetch::total          128                       (Unspecified)
board.cache_hierarchy.ruby_system.Directory_Controller.Memory_Data |          64     50.00%     50.00% |          64     50.00%    100.00% (Unspecified)
board.cache_hierarchy.ruby_system.Directory_Controller.Memory_Data::total          128                       (Unspecified)
board.cache_hierarchy.ruby_system.Directory_Controller.I.Fetch |          64     50.00%     50.00% |          64     50.00%    100.00% (Unspecified)
board.cache_hierarchy.ruby_system.Directory_Controller.I.Fetch::total          128                       (Unspecified)
board.cache_hierarchy.ruby_system.Directory_Controller.IM.Memory_Data |          64     50.00%     50.00% |          64     50.00%    100.00% (Unspecified)
board.cache_hierarchy.ruby_system.Directory_Controller.IM.Memory_Data::total          128                       (Unspecified)
board.cache_hierarchy.ruby_system.L1Cache_Controller.Load      3230161      0.00%      0.00% (Unspecified)
board.cache_hierarchy.ruby_system.L1Cache_Controller.Ifetch           83      0.00%      0.00% (Unspecified)
board.cache_hierarchy.ruby_system.L1Cache_Controller.Store      2094467      0.00%      0.00% (Unspecified)
board.cache_hierarchy.ruby_system.L1Cache_Controller.L1_Replacement           74      0.00%      0.00% (Unspecified)
board.cache_hierarchy.ruby_system.L1Cache_Controller.Data_Exclusive          129      0.00%      0.00% (Unspecified)
board.cache_hierarchy.ruby_system.L1Cache_Controller.WB_Ack           74      0.00%      0.00% (Unspecified)
board.cache_hierarchy.ruby_system.L1Cache_Controller.NP.Load          129      0.00%      0.00% (Unspecified)
board.cache_hierarchy.ruby_system.L1Cache_Controller.S.Ifetch           83      0.00%      0.00% (Unspecified)
board.cache_hierarchy.ruby_system.L1Cache_Controller.E.Load       121575      0.00%      0.00% (Unspecified)
board.cache_hierarchy.ruby_system.L1Cache_Controller.E.Store          128      0.00%      0.00% (Unspecified)
board.cache_hierarchy.ruby_system.L1Cache_Controller.E.L1_Replacement           31      0.00%      0.00% (Unspecified)
board.cache_hierarchy.ruby_system.L1Cache_Controller.M.Load      3108457      0.00%      0.00% (Unspecified)
board.cache_hierarchy.ruby_system.L1Cache_Controller.M.Store      2094339      0.00%      0.00% (Unspecified)
board.cache_hierarchy.ruby_system.L1Cache_Controller.M.L1_Replacement           43      0.00%      0.00% (Unspecified)
board.cache_hierarchy.ruby_system.L1Cache_Controller.IS.Data_Exclusive          129      0.00%      0.00% (Unspecified)
board.cache_hierarchy.ruby_system.L1Cache_Controller.M_I.WB_Ack           74      0.00%      0.00% (Unspecified)
board.cache_hierarchy.ruby_system.L2Cache_Controller.L1_GETS |          33     25.58%     25.58% |          32     24.81%     50.39% |          32     24.81%     75.19% |          32     24.81%    100.00% (Unspecified)
board.cache_hierarchy.ruby_system.L2Cache_Controller.L1_GETS::total          129                       (Unspecified)
board.cache_hierarchy.ruby_system.L2Cache_Controller.L1_PUTX |          20     27.03%     27.03% |          15     20.27%     47.30% |          19     25.68%     72.97% |          20     27.03%    100.00% (Unspecified)
board.cache_hierarchy.ruby_system.L2Cache_Controller.L1_PUTX::total           74                       (Unspecified)
board.cache_hierarchy.ruby_system.L2Cache_Controller.Mem_Data |          32     25.00%     25.00% |          32     25.00%     50.00% |          32     25.00%     75.00% |          32     25.00%    100.00% (Unspecified)
board.cache_hierarchy.ruby_system.L2Cache_Controller.Mem_Data::total          128                       (Unspecified)
board.cache_hierarchy.ruby_system.L2Cache_Controller.Exclusive_Unblock |          33     25.58%     25.58% |          32     24.81%     50.39% |          32     24.81%     75.19% |          32     24.81%    100.00% (Unspecified)
board.cache_hierarchy.ruby_system.L2Cache_Controller.Exclusive_Unblock::total          129                       (Unspecified)
board.cache_hierarchy.ruby_system.L2Cache_Controller.NP.L1_GETS |          32     25.00%     25.00% |          32     25.00%     50.00% |          32     25.00%     75.00% |          32     25.00%    100.00% (Unspecified)
board.cache_hierarchy.ruby_system.L2Cache_Controller.NP.L1_GETS::total          128                       (Unspecified)
board.cache_hierarchy.ruby_system.L2Cache_Controller.M.L1_GETS |           1    100.00%    100.00% |           0      0.00%    100.00% |           0      0.00%    100.00% |           0      0.00%    100.00% (Unspecified)
board.cache_hierarchy.ruby_system.L2Cache_Controller.M.L1_GETS::total            1                       (Unspecified)
board.cache_hierarchy.ruby_system.L2Cache_Controller.MT.L1_PUTX |          20     27.03%     27.03% |          15     20.27%     47.30% |          19     25.68%     72.97% |          20     27.03%    100.00% (Unspecified)
board.cache_hierarchy.ruby_system.L2Cache_Controller.MT.L1_PUTX::total           74                       (Unspecified)
board.cache_hierarchy.ruby_system.L2Cache_Controller.ISS.Mem_Data |          32     25.00%     25.00% |          32     25.00%     50.00% |          32     25.00%     75.00% |          32     25.00%    100.00% (Unspecified)
board.cache_hierarchy.ruby_system.L2Cache_Controller.ISS.Mem_Data::total          128                       (Unspecified)
board.cache_hierarchy.ruby_system.L2Cache_Controller.MT_MB.Exclusive_Unblock |          33     25.58%     25.58% |          32     24.81%     50.39% |          32     24.81%     75.19% |          32     24.81%    100.00% (Unspecified)
board.cache_hierarchy.ruby_system.L2Cache_Controller.MT_MB.Exclusive_Unblock::total          129                       (Unspecified)
board.cache_hierarchy.ruby_system.RequestType.LD.latency_hist_seqr::bucket_size          128                       (Unspecified)
board.cache_hierarchy.ruby_system.RequestType.LD.latency_hist_seqr::max_bucket         1279                       (Unspecified)
board.cache_hierarchy.ruby_system.RequestType.LD.latency_hist_seqr::samples      3230161                       (Unspecified)
board.cache_hierarchy.ruby_system.RequestType.LD.latency_hist_seqr::mean     1.004294                       (Unspecified)
board.cache_hierarchy.ruby_system.RequestType.LD.latency_hist_seqr::gmean     1.000185                       (Unspecified)
board.cache_hierarchy.ruby_system.RequestType.LD.latency_hist_seqr::stdev     0.800136                       (Unspecified)
board.cache_hierarchy.ruby_system.RequestType.LD.latency_hist_seqr |     3230152    100.00%    100.00% |           8      0.00%    100.00% |           0      0.00%    100.00% |           0      0.00%    100.00% |           0      0.00%    100.00% |           0      0.00%    100.00% |           1      0.00%    100.00% |           0      0.00%    100.00% |           0      0.00%    100.00% |           0      0.00%    100.00% (Unspecified)
board.cache_hierarchy.ruby_system.RequestType.LD.latency_hist_seqr::total      3230161                       (Unspecified)
board.cache_hierarchy.ruby_system.RequestType.LD.hit_latency_hist_seqr::bucket_size            1                       (Unspecified)
board.cache_hierarchy.ruby_system.RequestType.LD.hit_latency_hist_seqr::max_bucket            9                       (Unspecified)
board.cache_hierarchy.ruby_system.RequestType.LD.hit_latency_hist_seqr::samples      3230032                       (Unspecified)
board.cache_hierarchy.ruby_system.RequestType.LD.hit_latency_hist_seqr::mean            1                       (Unspecified)
board.cache_hierarchy.ruby_system.RequestType.LD.hit_latency_hist_seqr::gmean            1                       (Unspecified)
board.cache_hierarchy.ruby_system.RequestType.LD.hit_latency_hist_seqr |           0      0.00%      0.00% |     3230032    100.00%    100.00% |           0      0.00%    100.00% |           0      0.00%    100.00% |           0      0.00%    100.00% |           0      0.00%    100.00% |           0      0.00%    100.00% |           0      0.00%    100.00% |           0      0.00%    100.00% |           0      0.00%    100.00% (Unspecified)
board.cache_hierarchy.ruby_system.RequestType.LD.hit_latency_hist_seqr::total      3230032                       (Unspecified)
board.cache_hierarchy.ruby_system.RequestType.LD.miss_latency_hist_seqr::bucket_size          128                       (Unspecified)
board.cache_hierarchy.ruby_system.RequestType.LD.miss_latency_hist_seqr::max_bucket         1279                       (Unspecified)
board.cache_hierarchy.ruby_system.RequestType.LD.miss_latency_hist_seqr::samples          129                       (Unspecified)
board.cache_hierarchy.ruby_system.RequestType.LD.miss_latency_hist_seqr::mean   108.519380                       (Unspecified)
board.cache_hierarchy.ruby_system.RequestType.LD.miss_latency_hist_seqr::gmean   103.327188                       (Unspecified)
board.cache_hierarchy.ruby_system.RequestType.LD.miss_latency_hist_seqr::stdev    67.126874                       (Unspecified)
board.cache_hierarchy.ruby_system.RequestType.LD.miss_latency_hist_seqr |         120     93.02%     93.02% |           8      6.20%     99.22% |           0      0.00%     99.22% |           0      0.00%     99.22% |           0      0.00%     99.22% |           0      0.00%     99.22% |           1      0.78%    100.00% |           0      0.00%    100.00% |           0      0.00%    100.00% |           0      0.00%    100.00% (Unspecified)
board.cache_hierarchy.ruby_system.RequestType.LD.miss_latency_hist_seqr::total          129                       (Unspecified)
board.cache_hierarchy.ruby_system.RequestType.ST.latency_hist_seqr::bucket_size            1                       (Unspecified)
board.cache_hierarchy.ruby_system.RequestType.ST.latency_hist_seqr::max_bucket            9                       (Unspecified)
board.cache_hierarchy.ruby_system.RequestType.ST.latency_hist_seqr::samples      2094467                       (Unspecified)
board.cache_hierarchy.ruby_system.RequestType.ST.latency_hist_seqr::mean     1.278522                       (Unspecified)
board.cache_hierarchy.ruby_system.RequestType.ST.latency_hist_seqr::gmean     1.212952                       (Unspecified)
board.cache_hierarchy.ruby_system.RequestType.ST.latency_hist_seqr::stdev     0.448272                       (Unspecified)
board.cache_hierarchy.ruby_system.RequestType.ST.latency_hist_seqr |           0      0.00%      0.00% |     1511112     72.15%     72.15% |      583355     27.85%    100.00% |           0      0.00%    100.00% |           0      0.00%    100.00% |           0      0.00%    100.00% |           0      0.00%    100.00% |           0      0.00%    100.00% |           0      0.00%    100.00% |           0      0.00%    100.00% (Unspecified)
board.cache_hierarchy.ruby_system.RequestType.ST.latency_hist_seqr::total      2094467                       (Unspecified)
board.cache_hierarchy.ruby_system.RequestType.ST.hit_latency_hist_seqr::bucket_size            1                       (Unspecified)
board.cache_hierarchy.ruby_system.RequestType.ST.hit_latency_hist_seqr::max_bucket            9                       (Unspecified)
board.cache_hierarchy.ruby_system.RequestType.ST.hit_latency_hist_seqr::samples      2094467                       (Unspecified)
board.cache_hierarchy.ruby_system.RequestType.ST.hit_latency_hist_seqr::mean     1.278522                       (Unspecified)
board.cache_hierarchy.ruby_system.RequestType.ST.hit_latency_hist_seqr::gmean     1.212952                       (Unspecified)
board.cache_hierarchy.ruby_system.RequestType.ST.hit_latency_hist_seqr::stdev     0.448272                       (Unspecified)
board.cache_hierarchy.ruby_system.RequestType.ST.hit_latency_hist_seqr |           0      0.00%      0.00% |     1511112     72.15%     72.15% |      583355     27.85%    100.00% |           0      0.00%    100.00% |           0      0.00%    100.00% |           0      0.00%    100.00% |           0      0.00%    100.00% |           0      0.00%    100.00% |           0      0.00%    100.00% |           0      0.00%    100.00% (Unspecified)
board.cache_hierarchy.ruby_system.RequestType.ST.hit_latency_hist_seqr::total      2094467                       (Unspecified)
board.cache_hierarchy.ruby_system.RequestType.IFETCH.latency_hist_seqr::bucket_size            1                       (Unspecified)
board.cache_hierarchy.ruby_system.RequestType.IFETCH.latency_hist_seqr::max_bucket            9                       (Unspecified)
board.cache_hierarchy.ruby_system.RequestType.IFETCH.latency_hist_seqr::samples           83                       (Unspecified)
board.cache_hierarchy.ruby_system.RequestType.IFETCH.latency_hist_seqr::mean            1                       (Unspecified)
board.cache_hierarchy.ruby_system.RequestType.IFETCH.latency_hist_seqr::gmean            1                       (Unspecified)
board.cache_hierarchy.ruby_system.RequestType.IFETCH.latency_hist_seqr |           0      0.00%      0.00% |          83    100.00%    100.00% |           0      0.00%    100.00% |           0      0.00%    100.00% |           0      0.00%    100.00% |           0      0.00%    100.00% |           0      0.00%    100.00% |           0      0.00%    100.00% |           0      0.00%    100.00% |           0      0.00%    100.00% (Unspecified)
board.cache_hierarchy.ruby_system.RequestType.IFETCH.latency_hist_seqr::total           83                       (Unspecified)
board.cache_hierarchy.ruby_system.RequestType.IFETCH.hit_latency_hist_seqr::bucket_size            1                       (Unspecified)
board.cache_hierarchy.ruby_system.RequestType.IFETCH.hit_latency_hist_seqr::max_bucket            9                       (Unspecified)
board.cache_hierarchy.ruby_system.RequestType.IFETCH.hit_latency_hist_seqr::samples           83                       (Unspecified)
board.cache_hierarchy.ruby_system.RequestType.IFETCH.hit_latency_hist_seqr::mean            1                       (Unspecified)
board.cache_hierarchy.ruby_system.RequestType.IFETCH.hit_latency_hist_seqr::gmean            1                       (Unspecified)
board.cache_hierarchy.ruby_system.RequestType.IFETCH.hit_latency_hist_seqr |           0      0.00%      0.00% |          83    100.00%    100.00% |           0      0.00%    100.00% |           0      0.00%    100.00% |           0      0.00%    100.00% |           0      0.00%    100.00% |           0      0.00%    100.00% |           0      0.00%    100.00% |           0      0.00%    100.00% |           0      0.00%    100.00% (Unspecified)
board.cache_hierarchy.ruby_system.RequestType.IFETCH.hit_latency_hist_seqr::total           83                       (Unspecified)
board.cache_hierarchy.ruby_system.directory_controllers0.power_state.pwrStateResidencyTicks::UNDEFINED   4658886500                       # Cumulative time (in ticks) in various power states (Tick)
board.cache_hierarchy.ruby_system.directory_controllers0.requestToDir.m_msg_count          620                       # Number of messages passed the buffer (Count)
board.cache_hierarchy.ruby_system.directory_controllers0.requestToDir.m_buf_msgs     0.000067                       # Average number of messages in buffer ((Count/Tick))
board.cache_hierarchy.ruby_system.directory_controllers0.requestToMemory.m_msg_count          620                       # Number of messages passed the buffer (Count)
board.cache_hierarchy.ruby_system.directory_controllers0.requestToMemory.m_buf_msgs     0.000068                       # Average number of messages in buffer ((Count/Tick))
board.cache_hierarchy.ruby_system.directory_controllers0.requestToMemory.m_stall_time         4500                       # Total number of ticks messages were stalled in this buffer (Tick)
board.cache_hierarchy.ruby_system.directory_controllers0.requestToMemory.m_avg_stall_time     7.258065                       # Average stall ticks per message ((Tick/Count))
board.cache_hierarchy.ruby_system.directory_controllers0.responseFromDir.m_msg_count          620                       # Number of messages passed the buffer (Count)
board.cache_hierarchy.ruby_system.directory_controllers0.responseFromDir.m_buf_msgs     0.000067                       # Average number of messages in buffer ((Count/Tick))
board.cache_hierarchy.ruby_system.directory_controllers0.responseFromMemory.m_msg_count          620                       # Number of messages passed the buffer (Count)
board.cache_hierarchy.ruby_system.directory_controllers0.responseFromMemory.m_buf_msgs     0.000078                       # Average number of messages in buffer ((Count/Tick))
board.cache_hierarchy.ruby_system.directory_controllers1.power_state.pwrStateResidencyTicks::UNDEFINED   4658886500                       # Cumulative time (in ticks) in various power states (Tick)
board.cache_hierarchy.ruby_system.directory_controllers1.requestToDir.m_msg_count          609                       # Number of messages passed the buffer (Count)
board.cache_hierarchy.ruby_system.directory_controllers1.requestToDir.m_buf_msgs     0.000065                       # Average number of messages in buffer ((Count/Tick))
board.cache_hierarchy.ruby_system.directory_controllers1.requestToMemory.m_msg_count          609                       # Number of messages passed the buffer (Count)
board.cache_hierarchy.ruby_system.directory_controllers1.requestToMemory.m_buf_msgs     0.000066                       # Average number of messages in buffer ((Count/Tick))
board.cache_hierarchy.ruby_system.directory_controllers1.requestToMemory.m_stall_time         4000                       # Total number of ticks messages were stalled in this buffer (Tick)
board.cache_hierarchy.ruby_system.directory_controllers1.requestToMemory.m_avg_stall_time     6.568144                       # Average stall ticks per message ((Tick/Count))
board.cache_hierarchy.ruby_system.directory_controllers1.responseFromDir.m_msg_count          609                       # Number of messages passed the buffer (Count)
board.cache_hierarchy.ruby_system.directory_controllers1.responseFromDir.m_buf_msgs     0.000065                       # Average number of messages in buffer ((Count/Tick))
board.cache_hierarchy.ruby_system.directory_controllers1.responseFromMemory.m_msg_count          609                       # Number of messages passed the buffer (Count)
board.cache_hierarchy.ruby_system.directory_controllers1.responseFromMemory.m_buf_msgs     0.000076                       # Average number of messages in buffer ((Count/Tick))
board.cache_hierarchy.ruby_system.l1_controllers.fullyBusyCycles           43                       # cycles for which number of transistions == max transitions (Unspecified)
board.cache_hierarchy.ruby_system.l1_controllers.delayHistogram::samples          203                       # delay_histogram (Unspecified)
board.cache_hierarchy.ruby_system.l1_controllers.delayHistogram::0          203    100.00%    100.00% # delay_histogram (Unspecified)
board.cache_hierarchy.ruby_system.l1_controllers.delayHistogram::total          203                       # delay_histogram (Unspecified)
board.cache_hierarchy.ruby_system.l1_controllers.L1Dcache.m_demand_hits      5336965                       # Number of cache demand hits (Unspecified)
board.cache_hierarchy.ruby_system.l1_controllers.L1Dcache.m_demand_misses          607                       # Number of cache demand misses (Unspecified)
board.cache_hierarchy.ruby_system.l1_controllers.L1Dcache.m_demand_accesses      5337572                       # Number of cache demand accesses (Unspecified)
board.cache_hierarchy.ruby_system.l1_controllers.L1Icache.m_demand_hits        10761                       # Number of cache demand hits (Unspecified)
board.cache_hierarchy.ruby_system.l1_controllers.L1Icache.m_demand_misses          640                       # Number of cache demand misses (Unspecified)
board.cache_hierarchy.ruby_system.l1_controllers.L1Icache.m_demand_accesses        11401                       # Number of cache demand accesses (Unspecified)
board.cache_hierarchy.ruby_system.l1_controllers.mandatoryQueue.m_msg_count      5348973                       # Number of messages passed the buffer (Count)
board.cache_hierarchy.ruby_system.l1_controllers.mandatoryQueue.m_buf_msgs     0.574062                       # Average number of messages in buffer ((Count/Tick))
board.cache_hierarchy.ruby_system.l1_controllers.mandatoryQueue.m_stall_time         2000                       # Total number of ticks messages were stalled in this buffer (Tick)
board.cache_hierarchy.ruby_system.l1_controllers.mandatoryQueue.m_avg_stall_time     0.000374                       # Average stall ticks per message ((Tick/Count))
board.cache_hierarchy.ruby_system.l1_controllers.power_state.pwrStateResidencyTicks::UNDEFINED   4658886500                       # Cumulative time (in ticks) in various power states (Tick)
board.cache_hierarchy.ruby_system.l1_controllers.prefetcher.RubyPrefetcher.numMissObserved            0                       # Number of misses observed (Unspecified)
board.cache_hierarchy.ruby_system.l1_controllers.prefetcher.RubyPrefetcher.numAllocatedStreams            0                       # Number of streams allocated for prefetching (Unspecified)
board.cache_hierarchy.ruby_system.l1_controllers.prefetcher.RubyPrefetcher.numPrefetchRequested            0                       # Number of prefetch requests made (Unspecified)
board.cache_hierarchy.ruby_system.l1_controllers.prefetcher.RubyPrefetcher.numHits            0                       # Number of prefetched blocks accessed (for the first time) (Unspecified)
board.cache_hierarchy.ruby_system.l1_controllers.prefetcher.RubyPrefetcher.numPartialHits            0                       # Number of misses observed for a block being prefetched (Unspecified)
board.cache_hierarchy.ruby_system.l1_controllers.prefetcher.RubyPrefetcher.numPagesCrossed            0                       # Number of prefetches across pages (Unspecified)
board.cache_hierarchy.ruby_system.l1_controllers.prefetcher.RubyPrefetcher.numMissedPrefetchedBlocks            0                       # Number of misses for blocks that were prefetched, yet missed (Unspecified)
board.cache_hierarchy.ruby_system.l1_controllers.requestFromL1Cache.m_msg_count         1353                       # Number of messages passed the buffer (Count)
board.cache_hierarchy.ruby_system.l1_controllers.requestFromL1Cache.m_buf_msgs     0.000290                       # Average number of messages in buffer ((Count/Tick))
board.cache_hierarchy.ruby_system.l1_controllers.responseToL1Cache.m_msg_count         1353                       # Number of messages passed the buffer (Count)
board.cache_hierarchy.ruby_system.l1_controllers.responseToL1Cache.m_buf_msgs     0.000145                       # Average number of messages in buffer ((Count/Tick))
board.cache_hierarchy.ruby_system.l1_controllers.sequencer.power_state.pwrStateResidencyTicks::UNDEFINED   4658886500                       # Cumulative time (in ticks) in various power states (Tick)
board.cache_hierarchy.ruby_system.l1_controllers.unblockFromL1Cache.m_msg_count          607                       # Number of messages passed the buffer (Count)
board.cache_hierarchy.ruby_system.l1_controllers.unblockFromL1Cache.m_buf_msgs     0.000065                       # Average number of messages in buffer ((Count/Tick))
board.cache_hierarchy.ruby_system.l2_controllers0.delayHistogram::samples          118                       # delay_histogram (Unspecified)
board.cache_hierarchy.ruby_system.l2_controllers0.delayHistogram::mean     0.677966                       # delay_histogram (Unspecified)
board.cache_hierarchy.ruby_system.l2_controllers0.delayHistogram::stdev     2.237525                       # delay_histogram (Unspecified)
board.cache_hierarchy.ruby_system.l2_controllers0.delayHistogram::0          108     91.53%     91.53% # delay_histogram (Unspecified)
board.cache_hierarchy.ruby_system.l2_controllers0.delayHistogram::8           10      8.47%    100.00% # delay_histogram (Unspecified)
board.cache_hierarchy.ruby_system.l2_controllers0.delayHistogram::total          118                       # delay_histogram (Unspecified)
board.cache_hierarchy.ruby_system.l2_controllers0.DirRequestFromL2Cache.m_msg_count          301                       # Number of messages passed the buffer (Count)
board.cache_hierarchy.ruby_system.l2_controllers0.DirRequestFromL2Cache.m_buf_msgs     0.000065                       # Average number of messages in buffer ((Count/Tick))
board.cache_hierarchy.ruby_system.l2_controllers0.L1RequestToL2Cache.m_msg_count          335                       # Number of messages passed the buffer (Count)
board.cache_hierarchy.ruby_system.l2_controllers0.L1RequestToL2Cache.m_buf_msgs     0.000036                       # Average number of messages in buffer ((Count/Tick))
board.cache_hierarchy.ruby_system.l2_controllers0.L2cache.m_demand_hits            5                       # Number of cache demand hits (Unspecified)
board.cache_hierarchy.ruby_system.l2_controllers0.L2cache.m_demand_misses          301                       # Number of cache demand misses (Unspecified)
board.cache_hierarchy.ruby_system.l2_controllers0.L2cache.m_demand_accesses          306                       # Number of cache demand accesses (Unspecified)
board.cache_hierarchy.ruby_system.l2_controllers0.power_state.pwrStateResidencyTicks::UNDEFINED   4658886500                       # Cumulative time (in ticks) in various power states (Tick)
board.cache_hierarchy.ruby_system.l2_controllers0.responseFromL2Cache.m_msg_count          335                       # Number of messages passed the buffer (Count)
board.cache_hierarchy.ruby_system.l2_controllers0.responseFromL2Cache.m_buf_msgs     0.000036                       # Average number of messages in buffer ((Count/Tick))
board.cache_hierarchy.ruby_system.l2_controllers0.responseToL2Cache.m_msg_count          301                       # Number of messages passed the buffer (Count)
board.cache_hierarchy.ruby_system.l2_controllers0.responseToL2Cache.m_buf_msgs     0.000032                       # Average number of messages in buffer ((Count/Tick))
board.cache_hierarchy.ruby_system.l2_controllers0.unblockToL2Cache.m_msg_count          154                       # Number of messages passed the buffer (Count)
board.cache_hierarchy.ruby_system.l2_controllers0.unblockToL2Cache.m_buf_msgs     0.000017                       # Average number of messages in buffer ((Count/Tick))
board.cache_hierarchy.ruby_system.l2_controllers1.delayHistogram::samples          111                       # delay_histogram (Unspecified)
board.cache_hierarchy.ruby_system.l2_controllers1.delayHistogram::mean     0.504505                       # delay_histogram (Unspecified)
board.cache_hierarchy.ruby_system.l2_controllers1.delayHistogram::stdev     1.953430                       # delay_histogram (Unspecified)
board.cache_hierarchy.ruby_system.l2_controllers1.delayHistogram::0          104     93.69%     93.69% # delay_histogram (Unspecified)
board.cache_hierarchy.ruby_system.l2_controllers1.delayHistogram::8            7      6.31%    100.00% # delay_histogram (Unspecified)
board.cache_hierarchy.ruby_system.l2_controllers1.delayHistogram::total          111                       # delay_histogram (Unspecified)
board.cache_hierarchy.ruby_system.l2_controllers1.DirRequestFromL2Cache.m_msg_count          319                       # Number of messages passed the buffer (Count)
board.cache_hierarchy.ruby_system.l2_controllers1.DirRequestFromL2Cache.m_buf_msgs     0.000068                       # Average number of messages in buffer ((Count/Tick))
board.cache_hierarchy.ruby_system.l2_controllers1.L1RequestToL2Cache.m_msg_count          353                       # Number of messages passed the buffer (Count)
board.cache_hierarchy.ruby_system.l2_controllers1.L1RequestToL2Cache.m_buf_msgs     0.000038                       # Average number of messages in buffer ((Count/Tick))
board.cache_hierarchy.ruby_system.l2_controllers1.L2cache.m_demand_hits            5                       # Number of cache demand hits (Unspecified)
board.cache_hierarchy.ruby_system.l2_controllers1.L2cache.m_demand_misses          319                       # Number of cache demand misses (Unspecified)
board.cache_hierarchy.ruby_system.l2_controllers1.L2cache.m_demand_accesses          324                       # Number of cache demand accesses (Unspecified)
board.cache_hierarchy.ruby_system.l2_controllers1.power_state.pwrStateResidencyTicks::UNDEFINED   4658886500                       # Cumulative time (in ticks) in various power states (Tick)
board.cache_hierarchy.ruby_system.l2_controllers1.responseFromL2Cache.m_msg_count          353                       # Number of messages passed the buffer (Count)
board.cache_hierarchy.ruby_system.l2_controllers1.responseFromL2Cache.m_buf_msgs     0.000038                       # Average number of messages in buffer ((Count/Tick))
board.cache_hierarchy.ruby_system.l2_controllers1.responseToL2Cache.m_msg_count          319                       # Number of messages passed the buffer (Count)
board.cache_hierarchy.ruby_system.l2_controllers1.responseToL2Cache.m_buf_msgs     0.000034                       # Average number of messages in buffer ((Count/Tick))
board.cache_hierarchy.ruby_system.l2_controllers1.unblockToL2Cache.m_msg_count          154                       # Number of messages passed the buffer (Count)
board.cache_hierarchy.ruby_system.l2_controllers1.unblockToL2Cache.m_buf_msgs     0.000017                       # Average number of messages in buffer ((Count/Tick))
board.cache_hierarchy.ruby_system.l2_controllers2.delayHistogram::samples          115                       # delay_histogram (Unspecified)
board.cache_hierarchy.ruby_system.l2_controllers2.delayHistogram::mean     0.834783                       # delay_histogram (Unspecified)
board.cache_hierarchy.ruby_system.l2_controllers2.delayHistogram::stdev     2.456393                       # delay_histogram (Unspecified)
board.cache_hierarchy.ruby_system.l2_controllers2.delayHistogram::0          103     89.57%     89.57% # delay_histogram (Unspecified)
board.cache_hierarchy.ruby_system.l2_controllers2.delayHistogram::8           12     10.43%    100.00% # delay_histogram (Unspecified)
board.cache_hierarchy.ruby_system.l2_controllers2.delayHistogram::total          115                       # delay_histogram (Unspecified)
board.cache_hierarchy.ruby_system.l2_controllers2.DirRequestFromL2Cache.m_msg_count          308                       # Number of messages passed the buffer (Count)
board.cache_hierarchy.ruby_system.l2_controllers2.DirRequestFromL2Cache.m_buf_msgs     0.000066                       # Average number of messages in buffer ((Count/Tick))
board.cache_hierarchy.ruby_system.l2_controllers2.L1RequestToL2Cache.m_msg_count          337                       # Number of messages passed the buffer (Count)
board.cache_hierarchy.ruby_system.l2_controllers2.L1RequestToL2Cache.m_buf_msgs     0.000036                       # Average number of messages in buffer ((Count/Tick))
board.cache_hierarchy.ruby_system.l2_controllers2.L2cache.m_demand_hits            4                       # Number of cache demand hits (Unspecified)
board.cache_hierarchy.ruby_system.l2_controllers2.L2cache.m_demand_misses          308                       # Number of cache demand misses (Unspecified)
board.cache_hierarchy.ruby_system.l2_controllers2.L2cache.m_demand_accesses          312                       # Number of cache demand accesses (Unspecified)
board.cache_hierarchy.ruby_system.l2_controllers2.power_state.pwrStateResidencyTicks::UNDEFINED   4658886500                       # Cumulative time (in ticks) in various power states (Tick)
board.cache_hierarchy.ruby_system.l2_controllers2.responseFromL2Cache.m_msg_count          337                       # Number of messages passed the buffer (Count)
board.cache_hierarchy.ruby_system.l2_controllers2.responseFromL2Cache.m_buf_msgs     0.000037                       # Average number of messages in buffer ((Count/Tick))
board.cache_hierarchy.ruby_system.l2_controllers2.responseToL2Cache.m_msg_count          308                       # Number of messages passed the buffer (Count)
board.cache_hierarchy.ruby_system.l2_controllers2.responseToL2Cache.m_buf_msgs     0.000033                       # Average number of messages in buffer ((Count/Tick))
board.cache_hierarchy.ruby_system.l2_controllers2.unblockToL2Cache.m_msg_count          150                       # Number of messages passed the buffer (Count)
board.cache_hierarchy.ruby_system.l2_controllers2.unblockToL2Cache.m_buf_msgs     0.000016                       # Average number of messages in buffer ((Count/Tick))
board.cache_hierarchy.ruby_system.l2_controllers3.delayHistogram::samples          116                       # delay_histogram (Unspecified)
board.cache_hierarchy.ruby_system.l2_controllers3.delayHistogram::mean     0.965517                       # delay_histogram (Unspecified)
board.cache_hierarchy.ruby_system.l2_controllers3.delayHistogram::stdev     2.617437                       # delay_histogram (Unspecified)
board.cache_hierarchy.ruby_system.l2_controllers3.delayHistogram::0          102     87.93%     87.93% # delay_histogram (Unspecified)
board.cache_hierarchy.ruby_system.l2_controllers3.delayHistogram::8           14     12.07%    100.00% # delay_histogram (Unspecified)
board.cache_hierarchy.ruby_system.l2_controllers3.delayHistogram::total          116                       # delay_histogram (Unspecified)
board.cache_hierarchy.ruby_system.l2_controllers3.DirRequestFromL2Cache.m_msg_count          301                       # Number of messages passed the buffer (Count)
board.cache_hierarchy.ruby_system.l2_controllers3.DirRequestFromL2Cache.m_buf_msgs     0.000065                       # Average number of messages in buffer ((Count/Tick))
board.cache_hierarchy.ruby_system.l2_controllers3.L1RequestToL2Cache.m_msg_count          328                       # Number of messages passed the buffer (Count)
board.cache_hierarchy.ruby_system.l2_controllers3.L1RequestToL2Cache.m_buf_msgs     0.000035                       # Average number of messages in buffer ((Count/Tick))
board.cache_hierarchy.ruby_system.l2_controllers3.L2cache.m_demand_hits            4                       # Number of cache demand hits (Unspecified)
board.cache_hierarchy.ruby_system.l2_controllers3.L2cache.m_demand_misses          301                       # Number of cache demand misses (Unspecified)
board.cache_hierarchy.ruby_system.l2_controllers3.L2cache.m_demand_accesses          305                       # Number of cache demand accesses (Unspecified)
board.cache_hierarchy.ruby_system.l2_controllers3.power_state.pwrStateResidencyTicks::UNDEFINED   4658886500                       # Cumulative time (in ticks) in various power states (Tick)
board.cache_hierarchy.ruby_system.l2_controllers3.responseFromL2Cache.m_msg_count          328                       # Number of messages passed the buffer (Count)
board.cache_hierarchy.ruby_system.l2_controllers3.responseFromL2Cache.m_buf_msgs     0.000036                       # Average number of messages in buffer ((Count/Tick))
board.cache_hierarchy.ruby_system.l2_controllers3.responseToL2Cache.m_msg_count          301                       # Number of messages passed the buffer (Count)
board.cache_hierarchy.ruby_system.l2_controllers3.responseToL2Cache.m_buf_msgs     0.000032                       # Average number of messages in buffer ((Count/Tick))
board.cache_hierarchy.ruby_system.l2_controllers3.unblockToL2Cache.m_msg_count          149                       # Number of messages passed the buffer (Count)
board.cache_hierarchy.ruby_system.l2_controllers3.unblockToL2Cache.m_buf_msgs     0.000016                       # Average number of messages in buffer ((Count/Tick))
board.cache_hierarchy.ruby_system.network.msg_count.Control         4952                       (Unspecified)
board.cache_hierarchy.ruby_system.network.msg_byte.Control        39616                       (Unspecified)
board.cache_hierarchy.ruby_system.network.msg_count.Response_Data         4952                       (Unspecified)
board.cache_hierarchy.ruby_system.network.msg_byte.Response_Data       356544                       (Unspecified)
board.cache_hierarchy.ruby_system.network.msg_count.Response_Control         1426                       (Unspecified)
board.cache_hierarchy.ruby_system.network.msg_byte.Response_Control        11408                       (Unspecified)
board.cache_hierarchy.ruby_system.network.msg_count.Writeback_Data          126                       (Unspecified)
board.cache_hierarchy.ruby_system.network.msg_byte.Writeback_Data         9072                       (Unspecified)
board.cache_hierarchy.ruby_system.network.msg_count.Writeback_Control           86                       (Unspecified)
board.cache_hierarchy.ruby_system.network.msg_byte.Writeback_Control          688                       (Unspecified)
board.cache_hierarchy.ruby_system.network.int_links0.buffers0.m_msg_count           53                       # Number of messages passed the buffer (Count)
board.cache_hierarchy.ruby_system.network.int_links0.buffers0.m_buf_msgs     0.000006                       # Average number of messages in buffer ((Count/Tick))
board.cache_hierarchy.ruby_system.network.int_links0.buffers2.m_msg_count           33                       # Number of messages passed the buffer (Count)
board.cache_hierarchy.ruby_system.network.int_links0.buffers2.m_buf_msgs     0.000004                       # Average number of messages in buffer ((Count/Tick))
board.cache_hierarchy.ruby_system.network.int_links1.buffers0.m_msg_count           47                       # Number of messages passed the buffer (Count)
board.cache_hierarchy.ruby_system.network.int_links1.buffers0.m_buf_msgs     0.000005                       # Average number of messages in buffer ((Count/Tick))
board.cache_hierarchy.ruby_system.network.int_links1.buffers2.m_msg_count           32                       # Number of messages passed the buffer (Count)
board.cache_hierarchy.ruby_system.network.int_links1.buffers2.m_buf_msgs     0.000003                       # Average number of messages in buffer ((Count/Tick))
board.cache_hierarchy.ruby_system.network.int_links10.buffers0.m_msg_count           32                       # Number of messages passed the buffer (Count)
board.cache_hierarchy.ruby_system.network.int_links10.buffers0.m_buf_msgs     0.000003                       # Average number of messages in buffer ((Count/Tick))
board.cache_hierarchy.ruby_system.network.int_links12.buffers1.m_msg_count           47                       # Number of messages passed the buffer (Count)
board.cache_hierarchy.ruby_system.network.int_links12.buffers1.m_buf_msgs     0.000005                       # Average number of messages in buffer ((Count/Tick))
board.cache_hierarchy.ruby_system.network.int_links16.buffers0.m_msg_count           32                       # Number of messages passed the buffer (Count)
board.cache_hierarchy.ruby_system.network.int_links16.buffers0.m_buf_msgs     0.000003                       # Average number of messages in buffer ((Count/Tick))
board.cache_hierarchy.ruby_system.network.int_links18.buffers1.m_msg_count           51                       # Number of messages passed the buffer (Count)
board.cache_hierarchy.ruby_system.network.int_links18.buffers1.m_buf_msgs     0.000006                       # Average number of messages in buffer ((Count/Tick))
board.cache_hierarchy.ruby_system.network.int_links2.buffers0.m_msg_count           51                       # Number of messages passed the buffer (Count)
board.cache_hierarchy.ruby_system.network.int_links2.buffers0.m_buf_msgs     0.000006                       # Average number of messages in buffer ((Count/Tick))
board.cache_hierarchy.ruby_system.network.int_links2.buffers2.m_msg_count           32                       # Number of messages passed the buffer (Count)
board.cache_hierarchy.ruby_system.network.int_links2.buffers2.m_buf_msgs     0.000003                       # Average number of messages in buffer ((Count/Tick))
board.cache_hierarchy.ruby_system.network.int_links23.buffers0.m_msg_count           32                       # Number of messages passed the buffer (Count)
board.cache_hierarchy.ruby_system.network.int_links23.buffers0.m_buf_msgs     0.000003                       # Average number of messages in buffer ((Count/Tick))
board.cache_hierarchy.ruby_system.network.int_links24.buffers1.m_msg_count           52                       # Number of messages passed the buffer (Count)
board.cache_hierarchy.ruby_system.network.int_links24.buffers1.m_buf_msgs     0.000006                       # Average number of messages in buffer ((Count/Tick))
board.cache_hierarchy.ruby_system.network.int_links29.buffers0.m_msg_count           32                       # Number of messages passed the buffer (Count)
board.cache_hierarchy.ruby_system.network.int_links29.buffers0.m_buf_msgs     0.000003                       # Average number of messages in buffer ((Count/Tick))
board.cache_hierarchy.ruby_system.network.int_links3.buffers0.m_msg_count           52                       # Number of messages passed the buffer (Count)
board.cache_hierarchy.ruby_system.network.int_links3.buffers0.m_buf_msgs     0.000006                       # Average number of messages in buffer ((Count/Tick))
board.cache_hierarchy.ruby_system.network.int_links3.buffers2.m_msg_count           32                       # Number of messages passed the buffer (Count)
board.cache_hierarchy.ruby_system.network.int_links3.buffers2.m_buf_msgs     0.000003                       # Average number of messages in buffer ((Count/Tick))
board.cache_hierarchy.ruby_system.network.int_links31.buffers1.m_msg_count           32                       # Number of messages passed the buffer (Count)
board.cache_hierarchy.ruby_system.network.int_links31.buffers1.m_buf_msgs     0.000003                       # Average number of messages in buffer ((Count/Tick))
board.cache_hierarchy.ruby_system.network.int_links32.buffers1.m_msg_count           32                       # Number of messages passed the buffer (Count)
board.cache_hierarchy.ruby_system.network.int_links32.buffers1.m_buf_msgs     0.000003                       # Average number of messages in buffer ((Count/Tick))
board.cache_hierarchy.ruby_system.network.int_links39.buffers1.m_msg_count           32                       # Number of messages passed the buffer (Count)
board.cache_hierarchy.ruby_system.network.int_links39.buffers1.m_buf_msgs     0.000003                       # Average number of messages in buffer ((Count/Tick))
board.cache_hierarchy.ruby_system.network.int_links40.buffers1.m_msg_count           32                       # Number of messages passed the buffer (Count)
board.cache_hierarchy.ruby_system.network.int_links40.buffers1.m_buf_msgs     0.000003                       # Average number of messages in buffer ((Count/Tick))
board.cache_hierarchy.ruby_system.network.int_links6.buffers1.m_msg_count           53                       # Number of messages passed the buffer (Count)
board.cache_hierarchy.ruby_system.network.int_links6.buffers1.m_buf_msgs     0.000006                       # Average number of messages in buffer ((Count/Tick))
board.cache_hierarchy.ruby_system.network.power_state.pwrStateResidencyTicks::UNDEFINED   4658886500                       # Cumulative time (in ticks) in various power states (Tick)
board.cache_hierarchy.ruby_system.network.routers0.percent_links_utilized     0.010687                       (Unspecified)
board.cache_hierarchy.ruby_system.network.routers0.msg_count.Control::0         1247                       (Unspecified)
board.cache_hierarchy.ruby_system.network.routers0.msg_bytes.Control::0         9976                       (Unspecified)
board.cache_hierarchy.ruby_system.network.routers0.msg_count.Response_Data::1         1247                       (Unspecified)
board.cache_hierarchy.ruby_system.network.routers0.msg_bytes.Response_Data::1        89784                       (Unspecified)
board.cache_hierarchy.ruby_system.network.routers0.msg_count.Response_Control::1          106                       (Unspecified)
board.cache_hierarchy.ruby_system.network.routers0.msg_count.Response_Control::2          607                       (Unspecified)
board.cache_hierarchy.ruby_system.network.routers0.msg_bytes.Response_Control::1          848                       (Unspecified)
board.cache_hierarchy.ruby_system.network.routers0.msg_bytes.Response_Control::2         4856                       (Unspecified)
board.cache_hierarchy.ruby_system.network.routers0.msg_count.Writeback_Data::0           63                       (Unspecified)
board.cache_hierarchy.ruby_system.network.routers0.msg_bytes.Writeback_Data::0         4536                       (Unspecified)
board.cache_hierarchy.ruby_system.network.routers0.msg_count.Writeback_Control::0           43                       (Unspecified)
board.cache_hierarchy.ruby_system.network.routers0.msg_bytes.Writeback_Control::0          344                       (Unspecified)
board.cache_hierarchy.ruby_system.network.routers0.port_buffers1.m_msg_count         1353                       # Number of messages passed the buffer (Count)
board.cache_hierarchy.ruby_system.network.routers0.port_buffers1.m_buf_msgs     0.000161                       # Average number of messages in buffer ((Count/Tick))
board.cache_hierarchy.ruby_system.network.routers0.port_buffers1.m_stall_time        75500                       # Total number of ticks messages were stalled in this buffer (Tick)
board.cache_hierarchy.ruby_system.network.routers0.port_buffers1.m_avg_stall_time    55.801922                       # Average stall ticks per message ((Tick/Count))
board.cache_hierarchy.ruby_system.network.routers0.port_buffers11.m_msg_count          150                       # Number of messages passed the buffer (Count)
board.cache_hierarchy.ruby_system.network.routers0.port_buffers11.m_buf_msgs     0.000016                       # Average number of messages in buffer ((Count/Tick))
board.cache_hierarchy.ruby_system.network.routers0.port_buffers12.m_msg_count          328                       # Number of messages passed the buffer (Count)
board.cache_hierarchy.ruby_system.network.routers0.port_buffers12.m_buf_msgs     0.000041                       # Average number of messages in buffer ((Count/Tick))
board.cache_hierarchy.ruby_system.network.routers0.port_buffers12.m_stall_time        28000                       # Total number of ticks messages were stalled in this buffer (Tick)
board.cache_hierarchy.ruby_system.network.routers0.port_buffers12.m_avg_stall_time    85.365854                       # Average stall ticks per message ((Tick/Count))
board.cache_hierarchy.ruby_system.network.routers0.port_buffers14.m_msg_count          149                       # Number of messages passed the buffer (Count)
board.cache_hierarchy.ruby_system.network.routers0.port_buffers14.m_buf_msgs     0.000016                       # Average number of messages in buffer ((Count/Tick))
board.cache_hierarchy.ruby_system.network.routers0.port_buffers3.m_msg_count          335                       # Number of messages passed the buffer (Count)
board.cache_hierarchy.ruby_system.network.routers0.port_buffers3.m_buf_msgs     0.000043                       # Average number of messages in buffer ((Count/Tick))
board.cache_hierarchy.ruby_system.network.routers0.port_buffers3.m_stall_time        34000                       # Total number of ticks messages were stalled in this buffer (Tick)
board.cache_hierarchy.ruby_system.network.routers0.port_buffers3.m_avg_stall_time   101.492537                       # Average stall ticks per message ((Tick/Count))
board.cache_hierarchy.ruby_system.network.routers0.port_buffers5.m_msg_count          154                       # Number of messages passed the buffer (Count)
board.cache_hierarchy.ruby_system.network.routers0.port_buffers5.m_buf_msgs     0.000017                       # Average number of messages in buffer ((Count/Tick))
board.cache_hierarchy.ruby_system.network.routers0.port_buffers6.m_msg_count          353                       # Number of messages passed the buffer (Count)
board.cache_hierarchy.ruby_system.network.routers0.port_buffers6.m_buf_msgs     0.000045                       # Average number of messages in buffer ((Count/Tick))
board.cache_hierarchy.ruby_system.network.routers0.port_buffers6.m_stall_time        31500                       # Total number of ticks messages were stalled in this buffer (Tick)
board.cache_hierarchy.ruby_system.network.routers0.port_buffers6.m_avg_stall_time    89.235127                       # Average stall ticks per message ((Tick/Count))
board.cache_hierarchy.ruby_system.network.routers0.port_buffers8.m_msg_count          154                       # Number of messages passed the buffer (Count)
board.cache_hierarchy.ruby_system.network.routers0.port_buffers8.m_buf_msgs     0.000017                       # Average number of messages in buffer ((Count/Tick))
board.cache_hierarchy.ruby_system.network.routers0.port_buffers9.m_msg_count          337                       # Number of messages passed the buffer (Count)
board.cache_hierarchy.ruby_system.network.routers0.port_buffers9.m_buf_msgs     0.000043                       # Average number of messages in buffer ((Count/Tick))
board.cache_hierarchy.ruby_system.network.routers0.port_buffers9.m_stall_time        34000                       # Total number of ticks messages were stalled in this buffer (Tick)
board.cache_hierarchy.ruby_system.network.routers0.port_buffers9.m_avg_stall_time   100.890208                       # Average stall ticks per message ((Tick/Count))
board.cache_hierarchy.ruby_system.network.routers0.power_state.pwrStateResidencyTicks::UNDEFINED   4658886500                       # Cumulative time (in ticks) in various power states (Tick)
board.cache_hierarchy.ruby_system.network.routers0.throttle00.acc_link_utilization  5664.500000                       # Accumulated link utilization (Count)
board.cache_hierarchy.ruby_system.network.routers0.throttle00.link_utilization     0.061443                       # Average link utilization (Ratio)
board.cache_hierarchy.ruby_system.network.routers0.throttle00.total_msg_count         1353                       # Total number of messages forwarded by this switch (Count)
board.cache_hierarchy.ruby_system.network.routers0.throttle00.total_msg_bytes        90632                       # Total number of bytes forwarded by this switch (Byte)
board.cache_hierarchy.ruby_system.network.routers0.throttle00.total_data_msg_bytes        79808                       # Total number of data bytes forwarded by this switch (Byte)
board.cache_hierarchy.ruby_system.network.routers0.throttle00.total_msg_wait_time        75500                       # Total time spend forwarding messages (Tick)
board.cache_hierarchy.ruby_system.network.routers0.throttle00.total_stall_cy            0                       # Total time spent blocked on any output link (Cycle)
board.cache_hierarchy.ruby_system.network.routers0.throttle00.total_bw_sat_cy         4992                       # Total time bandwidth was saturated on any output link (Cycle)
board.cache_hierarchy.ruby_system.network.routers0.throttle00.avg_msg_wait_time    55.801922                       # Average time a message took to be forwarded (Ratio)
board.cache_hierarchy.ruby_system.network.routers0.throttle00.avg_bandwidth         0.02                       # Average bandwidth (GB/s) (Ratio)
board.cache_hierarchy.ruby_system.network.routers0.throttle00.avg_useful_bandwidth         0.02                       # Average usefull (only data) bandwidth (GB/s) (Ratio)
board.cache_hierarchy.ruby_system.network.routers0.throttle00.msg_count.Response_Data::1         1247                       (Unspecified)
board.cache_hierarchy.ruby_system.network.routers0.throttle00.msg_bytes.Response_Data::1        89784                       (Unspecified)
board.cache_hierarchy.ruby_system.network.routers0.throttle00.msg_count.Response_Control::1          106                       (Unspecified)
board.cache_hierarchy.ruby_system.network.routers0.throttle00.msg_bytes.Response_Control::1          848                       (Unspecified)
board.cache_hierarchy.ruby_system.network.routers0.throttle01.acc_link_utilization   312.500000                       # Accumulated link utilization (Count)
board.cache_hierarchy.ruby_system.network.routers0.throttle01.link_utilization     0.003390                       # Average link utilization (Ratio)
board.cache_hierarchy.ruby_system.network.routers0.throttle01.total_msg_count          489                       # Total number of messages forwarded by this switch (Count)
board.cache_hierarchy.ruby_system.network.routers0.throttle01.total_msg_bytes         5000                       # Total number of bytes forwarded by this switch (Byte)
board.cache_hierarchy.ruby_system.network.routers0.throttle01.total_data_msg_bytes         1088                       # Total number of data bytes forwarded by this switch (Byte)
board.cache_hierarchy.ruby_system.network.routers0.throttle01.total_msg_wait_time        34000                       # Total time spend forwarding messages (Tick)
board.cache_hierarchy.ruby_system.network.routers0.throttle01.total_stall_cy            0                       # Total time spent blocked on any output link (Cycle)
board.cache_hierarchy.ruby_system.network.routers0.throttle01.total_bw_sat_cy           68                       # Total time bandwidth was saturated on any output link (Cycle)
board.cache_hierarchy.ruby_system.network.routers0.throttle01.avg_msg_wait_time    69.529652                       # Average time a message took to be forwarded (Ratio)
board.cache_hierarchy.ruby_system.network.routers0.throttle01.avg_bandwidth         0.00                       # Average bandwidth (GB/s) (Ratio)
board.cache_hierarchy.ruby_system.network.routers0.throttle01.avg_useful_bandwidth         0.00                       # Average usefull (only data) bandwidth (GB/s) (Ratio)
board.cache_hierarchy.ruby_system.network.routers0.throttle01.msg_count.Control::0          306                       (Unspecified)
board.cache_hierarchy.ruby_system.network.routers0.throttle01.msg_bytes.Control::0         2448                       (Unspecified)
board.cache_hierarchy.ruby_system.network.routers0.throttle01.msg_count.Response_Control::2          154                       (Unspecified)
board.cache_hierarchy.ruby_system.network.routers0.throttle01.msg_bytes.Response_Control::2         1232                       (Unspecified)
board.cache_hierarchy.ruby_system.network.routers0.throttle01.msg_count.Writeback_Data::0           17                       (Unspecified)
board.cache_hierarchy.ruby_system.network.routers0.throttle01.msg_bytes.Writeback_Data::0         1224                       (Unspecified)
board.cache_hierarchy.ruby_system.network.routers0.throttle01.msg_count.Writeback_Control::0           12                       (Unspecified)
board.cache_hierarchy.ruby_system.network.routers0.throttle01.msg_bytes.Writeback_Control::0           96                       (Unspecified)
board.cache_hierarchy.ruby_system.network.routers0.throttle02.acc_link_utilization   313.500000                       # Accumulated link utilization (Count)
board.cache_hierarchy.ruby_system.network.routers0.throttle02.link_utilization     0.003401                       # Average link utilization (Ratio)
board.cache_hierarchy.ruby_system.network.routers0.throttle02.total_msg_count          507                       # Total number of messages forwarded by this switch (Count)
board.cache_hierarchy.ruby_system.network.routers0.throttle02.total_msg_bytes         5016                       # Total number of bytes forwarded by this switch (Byte)
board.cache_hierarchy.ruby_system.network.routers0.throttle02.total_data_msg_bytes          960                       # Total number of data bytes forwarded by this switch (Byte)
board.cache_hierarchy.ruby_system.network.routers0.throttle02.total_msg_wait_time        31500                       # Total time spend forwarding messages (Tick)
board.cache_hierarchy.ruby_system.network.routers0.throttle02.total_stall_cy            0                       # Total time spent blocked on any output link (Cycle)
board.cache_hierarchy.ruby_system.network.routers0.throttle02.total_bw_sat_cy           61                       # Total time bandwidth was saturated on any output link (Cycle)
board.cache_hierarchy.ruby_system.network.routers0.throttle02.avg_msg_wait_time    62.130178                       # Average time a message took to be forwarded (Ratio)
board.cache_hierarchy.ruby_system.network.routers0.throttle02.avg_bandwidth         0.00                       # Average bandwidth (GB/s) (Ratio)
board.cache_hierarchy.ruby_system.network.routers0.throttle02.avg_useful_bandwidth         0.00                       # Average usefull (only data) bandwidth (GB/s) (Ratio)
board.cache_hierarchy.ruby_system.network.routers0.throttle02.msg_count.Control::0          324                       (Unspecified)
board.cache_hierarchy.ruby_system.network.routers0.throttle02.msg_bytes.Control::0         2592                       (Unspecified)
board.cache_hierarchy.ruby_system.network.routers0.throttle02.msg_count.Response_Control::2          154                       (Unspecified)
board.cache_hierarchy.ruby_system.network.routers0.throttle02.msg_bytes.Response_Control::2         1232                       (Unspecified)
board.cache_hierarchy.ruby_system.network.routers0.throttle02.msg_count.Writeback_Data::0           15                       (Unspecified)
board.cache_hierarchy.ruby_system.network.routers0.throttle02.msg_bytes.Writeback_Data::0         1080                       (Unspecified)
board.cache_hierarchy.ruby_system.network.routers0.throttle02.msg_count.Writeback_Control::0           14                       (Unspecified)
board.cache_hierarchy.ruby_system.network.routers0.throttle02.msg_bytes.Writeback_Control::0          112                       (Unspecified)
board.cache_hierarchy.ruby_system.network.routers0.throttle03.acc_link_utilization   311.500000                       # Accumulated link utilization (Count)
board.cache_hierarchy.ruby_system.network.routers0.throttle03.link_utilization     0.003379                       # Average link utilization (Ratio)
board.cache_hierarchy.ruby_system.network.routers0.throttle03.total_msg_count          487                       # Total number of messages forwarded by this switch (Count)
board.cache_hierarchy.ruby_system.network.routers0.throttle03.total_msg_bytes         4984                       # Total number of bytes forwarded by this switch (Byte)
board.cache_hierarchy.ruby_system.network.routers0.throttle03.total_data_msg_bytes         1088                       # Total number of data bytes forwarded by this switch (Byte)
board.cache_hierarchy.ruby_system.network.routers0.throttle03.total_msg_wait_time        34000                       # Total time spend forwarding messages (Tick)
board.cache_hierarchy.ruby_system.network.routers0.throttle03.total_stall_cy            0                       # Total time spent blocked on any output link (Cycle)
board.cache_hierarchy.ruby_system.network.routers0.throttle03.total_bw_sat_cy           68                       # Total time bandwidth was saturated on any output link (Cycle)
board.cache_hierarchy.ruby_system.network.routers0.throttle03.avg_msg_wait_time    69.815195                       # Average time a message took to be forwarded (Ratio)
board.cache_hierarchy.ruby_system.network.routers0.throttle03.avg_bandwidth         0.00                       # Average bandwidth (GB/s) (Ratio)
board.cache_hierarchy.ruby_system.network.routers0.throttle03.avg_useful_bandwidth         0.00                       # Average usefull (only data) bandwidth (GB/s) (Ratio)
board.cache_hierarchy.ruby_system.network.routers0.throttle03.msg_count.Control::0          312                       (Unspecified)
board.cache_hierarchy.ruby_system.network.routers0.throttle03.msg_bytes.Control::0         2496                       (Unspecified)
board.cache_hierarchy.ruby_system.network.routers0.throttle03.msg_count.Response_Control::2          150                       (Unspecified)
board.cache_hierarchy.ruby_system.network.routers0.throttle03.msg_bytes.Response_Control::2         1200                       (Unspecified)
board.cache_hierarchy.ruby_system.network.routers0.throttle03.msg_count.Writeback_Data::0           17                       (Unspecified)
board.cache_hierarchy.ruby_system.network.routers0.throttle03.msg_bytes.Writeback_Data::0         1224                       (Unspecified)
board.cache_hierarchy.ruby_system.network.routers0.throttle03.msg_count.Writeback_Control::0            8                       (Unspecified)
board.cache_hierarchy.ruby_system.network.routers0.throttle03.msg_bytes.Writeback_Control::0           64                       (Unspecified)
board.cache_hierarchy.ruby_system.network.routers0.throttle04.acc_link_utilization   294.500000                       # Accumulated link utilization (Count)
board.cache_hierarchy.ruby_system.network.routers0.throttle04.link_utilization     0.003194                       # Average link utilization (Ratio)
board.cache_hierarchy.ruby_system.network.routers0.throttle04.total_msg_count          477                       # Total number of messages forwarded by this switch (Count)
board.cache_hierarchy.ruby_system.network.routers0.throttle04.total_msg_bytes         4712                       # Total number of bytes forwarded by this switch (Byte)
board.cache_hierarchy.ruby_system.network.routers0.throttle04.total_data_msg_bytes          896                       # Total number of data bytes forwarded by this switch (Byte)
board.cache_hierarchy.ruby_system.network.routers0.throttle04.total_msg_wait_time        28000                       # Total time spend forwarding messages (Tick)
board.cache_hierarchy.ruby_system.network.routers0.throttle04.total_stall_cy            0                       # Total time spent blocked on any output link (Cycle)
board.cache_hierarchy.ruby_system.network.routers0.throttle04.total_bw_sat_cy           56                       # Total time bandwidth was saturated on any output link (Cycle)
board.cache_hierarchy.ruby_system.network.routers0.throttle04.avg_msg_wait_time    58.700210                       # Average time a message took to be forwarded (Ratio)
board.cache_hierarchy.ruby_system.network.routers0.throttle04.avg_bandwidth         0.00                       # Average bandwidth (GB/s) (Ratio)
board.cache_hierarchy.ruby_system.network.routers0.throttle04.avg_useful_bandwidth         0.00                       # Average usefull (only data) bandwidth (GB/s) (Ratio)
board.cache_hierarchy.ruby_system.network.routers0.throttle04.msg_count.Control::0          305                       (Unspecified)
board.cache_hierarchy.ruby_system.network.routers0.throttle04.msg_bytes.Control::0         2440                       (Unspecified)
board.cache_hierarchy.ruby_system.network.routers0.throttle04.msg_count.Response_Control::2          149                       (Unspecified)
board.cache_hierarchy.ruby_system.network.routers0.throttle04.msg_bytes.Response_Control::2         1192                       (Unspecified)
board.cache_hierarchy.ruby_system.network.routers0.throttle04.msg_count.Writeback_Data::0           14                       (Unspecified)
board.cache_hierarchy.ruby_system.network.routers0.throttle04.msg_bytes.Writeback_Data::0         1008                       (Unspecified)
board.cache_hierarchy.ruby_system.network.routers0.throttle04.msg_count.Writeback_Control::0            9                       (Unspecified)
board.cache_hierarchy.ruby_system.network.routers0.throttle04.msg_bytes.Writeback_Control::0           72                       (Unspecified)
board.cache_hierarchy.ruby_system.network.routers0.throttle05.acc_link_utilization            0                       # Accumulated link utilization (Count)
board.cache_hierarchy.ruby_system.network.routers0.throttle05.link_utilization            0                       # Average link utilization (Ratio)
board.cache_hierarchy.ruby_system.network.routers0.throttle05.total_msg_count            0                       # Total number of messages forwarded by this switch (Count)
board.cache_hierarchy.ruby_system.network.routers0.throttle05.total_msg_bytes            0                       # Total number of bytes forwarded by this switch (Byte)
board.cache_hierarchy.ruby_system.network.routers0.throttle05.total_data_msg_bytes            0                       # Total number of data bytes forwarded by this switch (Byte)
board.cache_hierarchy.ruby_system.network.routers0.throttle05.total_msg_wait_time            0                       # Total time spend forwarding messages (Tick)
board.cache_hierarchy.ruby_system.network.routers0.throttle05.total_stall_cy            0                       # Total time spent blocked on any output link (Cycle)
board.cache_hierarchy.ruby_system.network.routers0.throttle05.total_bw_sat_cy            0                       # Total time bandwidth was saturated on any output link (Cycle)
board.cache_hierarchy.ruby_system.network.routers0.throttle05.avg_msg_wait_time          nan                       # Average time a message took to be forwarded (Ratio)
board.cache_hierarchy.ruby_system.network.routers0.throttle05.avg_bandwidth         0.00                       # Average bandwidth (GB/s) (Ratio)
board.cache_hierarchy.ruby_system.network.routers0.throttle05.avg_useful_bandwidth         0.00                       # Average usefull (only data) bandwidth (GB/s) (Ratio)
board.cache_hierarchy.ruby_system.network.routers0.throttle06.acc_link_utilization            0                       # Accumulated link utilization (Count)
board.cache_hierarchy.ruby_system.network.routers0.throttle06.link_utilization            0                       # Average link utilization (Ratio)
board.cache_hierarchy.ruby_system.network.routers0.throttle06.total_msg_count            0                       # Total number of messages forwarded by this switch (Count)
board.cache_hierarchy.ruby_system.network.routers0.throttle06.total_msg_bytes            0                       # Total number of bytes forwarded by this switch (Byte)
board.cache_hierarchy.ruby_system.network.routers0.throttle06.total_data_msg_bytes            0                       # Total number of data bytes forwarded by this switch (Byte)
board.cache_hierarchy.ruby_system.network.routers0.throttle06.total_msg_wait_time            0                       # Total time spend forwarding messages (Tick)
board.cache_hierarchy.ruby_system.network.routers0.throttle06.total_stall_cy            0                       # Total time spent blocked on any output link (Cycle)
board.cache_hierarchy.ruby_system.network.routers0.throttle06.total_bw_sat_cy            0                       # Total time bandwidth was saturated on any output link (Cycle)
board.cache_hierarchy.ruby_system.network.routers0.throttle06.avg_msg_wait_time          nan                       # Average time a message took to be forwarded (Ratio)
board.cache_hierarchy.ruby_system.network.routers0.throttle06.avg_bandwidth         0.00                       # Average bandwidth (GB/s) (Ratio)
board.cache_hierarchy.ruby_system.network.routers0.throttle06.avg_useful_bandwidth         0.00                       # Average usefull (only data) bandwidth (GB/s) (Ratio)
board.cache_hierarchy.ruby_system.network.routers1.percent_links_utilized     0.004973                       (Unspecified)
board.cache_hierarchy.ruby_system.network.routers1.msg_count.Control::0          607                       (Unspecified)
board.cache_hierarchy.ruby_system.network.routers1.msg_bytes.Control::0         4856                       (Unspecified)
board.cache_hierarchy.ruby_system.network.routers1.msg_count.Response_Data::1          607                       (Unspecified)
board.cache_hierarchy.ruby_system.network.routers1.msg_bytes.Response_Data::1        43704                       (Unspecified)
board.cache_hierarchy.ruby_system.network.routers1.msg_count.Response_Control::1           29                       (Unspecified)
board.cache_hierarchy.ruby_system.network.routers1.msg_count.Response_Control::2          154                       (Unspecified)
board.cache_hierarchy.ruby_system.network.routers1.msg_bytes.Response_Control::1          232                       (Unspecified)
board.cache_hierarchy.ruby_system.network.routers1.msg_bytes.Response_Control::2         1232                       (Unspecified)
board.cache_hierarchy.ruby_system.network.routers1.msg_count.Writeback_Data::0           17                       (Unspecified)
board.cache_hierarchy.ruby_system.network.routers1.msg_bytes.Writeback_Data::0         1224                       (Unspecified)
board.cache_hierarchy.ruby_system.network.routers1.msg_count.Writeback_Control::0           12                       (Unspecified)
board.cache_hierarchy.ruby_system.network.routers1.msg_bytes.Writeback_Control::0           96                       (Unspecified)
[...]
board.processor.cores.core.executeStats0.numVecAluAccesses            0                       # Number of vector alu accesses (Count)
board.processor.cores.core.executeStats0.numDiscardedOps            0                       # Number of ops (including micro ops) which were discarded before commit (Count)
board.processor.cores.core.fetch.predictedBranches      6334107                       # Number of branches that fetch has predicted taken (Count)
board.processor.cores.core.fetch.cycles       8919803                       # Number of cycles fetch has run and was not squashing or blocked (Cycle)
board.processor.cores.core.fetch.squashCycles       604028                       # Number of cycles fetch has spent squashing (Cycle)
board.processor.cores.core.fetch.miscStallCycles          190                       # Number of cycles fetch has spent waiting on interrupts, or bad addresses, or out of MSHRs (Cycle)
board.processor.cores.core.fetch.icacheWaitRetryStallCycles           11                       # Number of stall cycles due to full MSHR (Cycle)
board.processor.cores.core.fetch.cacheLines          930                       # Number of cache lines fetched (Count)
board.processor.cores.core.fetch.icacheSquashes           67                       # Number of outstanding Icache misses that were squashed (Count)
board.processor.cores.core.fetch.nisnDist::samples      9224239                       # Number of instructions fetched each cycle (Total) (Count)
board.processor.cores.core.fetch.nisnDist::mean     2.874301                       # Number of instructions fetched each cycle (Total) (Count)
board.processor.cores.core.fetch.nisnDist::stdev     0.993703                       # Number of instructions fetched each cycle (Total) (Count)
board.processor.cores.core.fetch.nisnDist::underflows            0      0.00%      0.00% # Number of instructions fetched each cycle (Total) (Count)
board.processor.cores.core.fetch.nisnDist::0       497547      5.39%      5.39% # Number of instructions fetched each cycle (Total) (Count)
board.processor.cores.core.fetch.nisnDist::1        58235      0.63%      6.03% # Number of instructions fetched each cycle (Total) (Count)
board.processor.cores.core.fetch.nisnDist::2      2046837     22.19%     28.21% # Number of instructions fetched each cycle (Total) (Count)
board.processor.cores.core.fetch.nisnDist::3      4125150     44.72%     72.94% # Number of instructions fetched each cycle (Total) (Count)
board.processor.cores.core.fetch.nisnDist::4      2496470     27.06%    100.00% # Number of instructions fetched each cycle (Total) (Count)
board.processor.cores.core.fetch.nisnDist::overflows            0      0.00%    100.00% # Number of instructions fetched each cycle (Total) (Count)
board.processor.cores.core.fetch.nisnDist::min_value            0                       # Number of instructions fetched each cycle (Total) (Count)
board.processor.cores.core.fetch.nisnDist::max_value            4                       # Number of instructions fetched each cycle (Total) (Count)
board.processor.cores.core.fetch.nisnDist::total      9224239                       # Number of instructions fetched each cycle (Total) (Count)
board.processor.cores.core.fetchStats0.numInsts     26513194                       # Number of instructions fetched (thread level) (Count)
board.processor.cores.core.fetchStats0.numOps            0                       # Number of ops (including micro ops) fetched (thread level) (Count)
board.processor.cores.core.fetchStats0.fetchRate     2.873272                       # Number of inst fetches per cycle ((Count/Cycle))
board.processor.cores.core.fetchStats0.numBranches      8670581                       # Number of branches fetched (Count)
board.processor.cores.core.fetchStats0.branchRate     0.939643                       # Number of branch fetches per cycle (Ratio)
board.processor.cores.core.fetchStats0.icacheStallCycles         2221                       # ICache total stall cycles (Cycle)
board.processor.cores.core.fetchStats0.numFetchSuspends            0                       # Number of times Execute suspended instruction fetching (Count)
board.processor.cores.core.iew.idleCycles            0                       # Number of cycles IEW is idle (Cycle)
board.processor.cores.core.iew.squashCycles       301972                       # Number of cycles IEW is squashing (Cycle)
board.processor.cores.core.iew.blockCycles       922462                       # Number of cycles IEW is blocking (Cycle)
board.processor.cores.core.iew.unblockCycles            4                       # Number of cycles IEW is unblocking (Cycle)
board.processor.cores.core.iew.dispatchedInsts     21358128                       # Number of instructions dispatched to IQ (Count)
board.processor.cores.core.iew.dispSquashedInsts         7350                       # Number of squashed instructions skipped by dispatch (Count)
board.processor.cores.core.iew.dispLoadInsts      6877604                       # Number of dispatched load instructions (Count)
board.processor.cores.core.iew.dispStoreInsts      3933968                       # Number of dispatched store instructions (Count)
board.processor.cores.core.iew.dispNonSpecInsts           80                       # Number of dispatched non-speculative instructions (Count)
board.processor.cores.core.iew.iqFullEvents            2                       # Number of times the IQ has become full, causing a stall (Count)
board.processor.cores.core.iew.lsqFullEvents            0                       # Number of times the LSQ has become full, causing a stall (Count)
board.processor.cores.core.iew.memOrderViolationEvents          865                       # Number of memory order violations (Count)
board.processor.cores.core.iew.predictedTakenIncorrect       175419                       # Number of branches that were predicted taken incorrectly (Count)
board.processor.cores.core.iew.predictedNotTakenIncorrect       155578                       # Number of branches that were predicted not taken incorrectly (Count)
board.processor.cores.core.iew.branchMispredicts       330997                       # Number of branch mispredicts detected at execute (Count)
board.processor.cores.core.iew.instsToCommit     16112092                       # Cumulative count of insts sent to commit (Count)
board.processor.cores.core.iew.writebackCount     15765922                       # Cumulative count of insts written-back (Count)
board.processor.cores.core.iew.producerInst      7852472                       # Number of instructions producing a value (Count)
board.processor.cores.core.iew.consumerInst     14718491                       # Number of instructions consuming a value (Count)
board.processor.cores.core.iew.wbRate        1.708575                       # Insts written-back per cycle ((Count/Cycle))
board.processor.cores.core.iew.wbFanout      0.533511                       # Average fanout of values written-back ((Count/Count))
board.processor.cores.core.lsq0.forwLoads      1637969                       # Number of loads that had data forwarded from stores (Count)
board.processor.cores.core.lsq0.squashedLoads      2684532                       # Number of loads squashed (Count)
board.processor.cores.core.lsq0.ignoredResponses        10040                       # Number of memory responses ignored because the instruction is squashed (Count)
board.processor.cores.core.lsq0.memOrderViolation          865                       # Number of memory ordering violations (Count)
board.processor.cores.core.lsq0.squashedStores      1826747                       # Number of stores squashed (Count)
board.processor.cores.core.lsq0.rescheduledLoads            0                       # Number of loads that were rescheduled (Count)
board.processor.cores.core.lsq0.blockedByCache          128                       # Number of times an access to memory failed due to the cache being blocked (Count)
board.processor.cores.core.lsq0.loadToUse::samples      4193072                       # Distribution of cycle latency between the first time a load is issued and its completion (Unspecified)
board.processor.cores.core.lsq0.loadToUse::mean     2.789866                       # Distribution of cycle latency between the first time a load is issued and its completion (Unspecified)
board.processor.cores.core.lsq0.loadToUse::stdev     3.952438                       # Distribution of cycle latency between the first time a load is issued and its completion (Unspecified)
board.processor.cores.core.lsq0.loadToUse::0-9      4190165     99.93%     99.93% # Distribution of cycle latency between the first time a load is issued and its completion (Unspecified)
board.processor.cores.core.lsq0.loadToUse::10-19            6      0.00%     99.93% # Distribution of cycle latency between the first time a load is issued and its completion (Unspecified)
board.processor.cores.core.lsq0.loadToUse::20-29            3      0.00%     99.93% # Distribution of cycle latency between the first time a load is issued and its completion (Unspecified)
board.processor.cores.core.lsq0.loadToUse::30-39           12      0.00%     99.93% # Distribution of cycle latency between the first time a load is issued and its completion (Unspecified)
board.processor.cores.core.lsq0.loadToUse::40-49            5      0.00%     99.93% # Distribution of cycle latency between the first time a load is issued and its completion (Unspecified)
board.processor.cores.core.lsq0.loadToUse::50-59            5      0.00%     99.93% # Distribution of cycle latency between the first time a load is issued and its completion (Unspecified)
board.processor.cores.core.lsq0.loadToUse::60-69           14      0.00%     99.93% # Distribution of cycle latency between the first time a load is issued and its completion (Unspecified)
board.processor.cores.core.lsq0.loadToUse::70-79           96      0.00%     99.93% # Distribution of cycle latency between the first time a load is issued and its completion (Unspecified)
board.processor.cores.core.lsq0.loadToUse::80-89         1535      0.04%     99.97% # Distribution of cycle latency between the first time a load is issued and its completion (Unspecified)
board.processor.cores.core.lsq0.loadToUse::90-99          222      0.01%     99.98% # Distribution of cycle latency between the first time a load is issued and its completion (Unspecified)
board.processor.cores.core.lsq0.loadToUse::100-109           24      0.00%     99.98% # Distribution of cycle latency between the first time a load is issued and its completion (Unspecified)
board.processor.cores.core.lsq0.loadToUse::110-119           87      0.00%     99.98% # Distribution of cycle latency between the first time a load is issued and its completion (Unspecified)
board.processor.cores.core.lsq0.loadToUse::120-129           15      0.00%     99.98% # Distribution of cycle latency between the first time a load is issued and its completion (Unspecified)
board.processor.cores.core.lsq0.loadToUse::130-139           10      0.00%     99.98% # Distribution of cycle latency between the first time a load is issued and its completion (Unspecified)
board.processor.cores.core.lsq0.loadToUse::140-149            1      0.00%     99.98% # Distribution of cycle latency between the first time a load is issued and its completion (Unspecified)
board.processor.cores.core.lsq0.loadToUse::150-159            7      0.00%     99.98% # Distribution of cycle latency between the first time a load is issued and its completion (Unspecified)
board.processor.cores.core.lsq0.loadToUse::160-169            9      0.00%     99.98% # Distribution of cycle latency between the first time a load is issued and its completion (Unspecified)
board.processor.cores.core.lsq0.loadToUse::170-179          583      0.01%     99.99% # Distribution of cycle latency between the first time a load is issued and its completion (Unspecified)
board.processor.cores.core.lsq0.loadToUse::180-189          180      0.00%    100.00% # Distribution of cycle latency between the first time a load is issued and its completion (Unspecified)
board.processor.cores.core.lsq0.loadToUse::190-199            2      0.00%    100.00% # Distribution of cycle latency between the first time a load is issued and its completion (Unspecified)
board.processor.cores.core.lsq0.loadToUse::200-209           36      0.00%    100.00% # Distribution of cycle latency between the first time a load is issued and its completion (Unspecified)
board.processor.cores.core.lsq0.loadToUse::210-219            4      0.00%    100.00% # Distribution of cycle latency between the first time a load is issued and its completion (Unspecified)
board.processor.cores.core.lsq0.loadToUse::220-229            2      0.00%    100.00% # Distribution of cycle latency between the first time a load is issued and its completion (Unspecified)
board.processor.cores.core.lsq0.loadToUse::230-239           16      0.00%    100.00% # Distribution of cycle latency between the first time a load is issued and its completion (Unspecified)
board.processor.cores.core.lsq0.loadToUse::240-249            3      0.00%    100.00% # Distribution of cycle latency between the first time a load is issued and its completion (Unspecified)
board.processor.cores.core.lsq0.loadToUse::overflows           30      0.00%    100.00% # Distribution of cycle latency between the first time a load is issued and its completion (Unspecified)
board.processor.cores.core.lsq0.loadToUse::min_value            2                       # Distribution of cycle latency between the first time a load is issued and its completion (Unspecified)
board.processor.cores.core.lsq0.loadToUse::max_value          960                       # Distribution of cycle latency between the first time a load is issued and its completion (Unspecified)
board.processor.cores.core.lsq0.loadToUse::total      4193072                       # Distribution of cycle latency between the first time a load is issued and its completion (Unspecified)
board.processor.cores.core.mmu.dtb.readHits            0                       # read hits (Count)
board.processor.cores.core.mmu.dtb.readMisses            0                       # read misses (Count)
board.processor.cores.core.mmu.dtb.readAccesses            0                       # read accesses (Count)
board.processor.cores.core.mmu.dtb.writeHits            0                       # write hits (Count)
board.processor.cores.core.mmu.dtb.writeMisses            0                       # write misses (Count)
board.processor.cores.core.mmu.dtb.writeAccesses            0                       # write accesses (Count)
board.processor.cores.core.mmu.dtb.hits             0                       # Total TLB (read and write) hits (Count)
board.processor.cores.core.mmu.dtb.misses            0                       # Total TLB (read and write) misses (Count)
board.processor.cores.core.mmu.dtb.accesses            0                       # Total TLB (read and write) accesses (Count)
board.processor.cores.core.mmu.dtb.walker.power_state.pwrStateResidencyTicks::UNDEFINED   4663061000                       # Cumulative time (in ticks) in various power states (Tick)
board.processor.cores.core.mmu.itb.readHits            0                       # read hits (Count)
board.processor.cores.core.mmu.itb.readMisses            0                       # read misses (Count)
board.processor.cores.core.mmu.itb.readAccesses            0                       # read accesses (Count)
board.processor.cores.core.mmu.itb.writeHits            0                       # write hits (Count)
board.processor.cores.core.mmu.itb.writeMisses            0                       # write misses (Count)
board.processor.cores.core.mmu.itb.writeAccesses            0                       # write accesses (Count)
board.processor.cores.core.mmu.itb.hits             0                       # Total TLB (read and write) hits (Count)
board.processor.cores.core.mmu.itb.misses            0                       # Total TLB (read and write) misses (Count)
board.processor.cores.core.mmu.itb.accesses            0                       # Total TLB (read and write) accesses (Count)
board.processor.cores.core.mmu.itb.walker.power_state.pwrStateResidencyTicks::UNDEFINED   4663061000                       # Cumulative time (in ticks) in various power states (Tick)
board.processor.cores.core.power_state.pwrStateResidencyTicks::ON   4663061000                       # Cumulative time (in ticks) in various power states (Tick)
board.processor.cores.core.rename.squashCycles       301972                       # Number of cycles rename is squashing (Cycle)
board.processor.cores.core.rename.idleCycles      1043897                       # Number of cycles rename is idle (Cycle)
board.processor.cores.core.rename.blockCycles       949839                       # Number of cycles rename is blocking (Cycle)
board.processor.cores.core.rename.serializeStallCycles         1216                       # count of cycles rename stalled for serializing inst (Cycle)
board.processor.cores.core.rename.runCycles      6507829                       # Number of cycles rename is running (Cycle)
board.processor.cores.core.rename.unblockCycles       419486                       # Number of cycles rename is unblocking (Cycle)
board.processor.cores.core.rename.renamedInsts     23301193                       # Number of instructions processed by rename (Count)
board.processor.cores.core.rename.ROBFullEvents           75                       # Number of times rename has blocked due to ROB full (Count)
board.processor.cores.core.rename.IQFullEvents       147527                       # Number of times rename has blocked due to IQ full (Count)
board.processor.cores.core.rename.fullRegistersEvents          249                       # Number of times there has been no free registers (Count)
board.processor.cores.core.rename.renamedOperands     11436583                       # Number of destination operands rename has renamed (Count)
board.processor.cores.core.rename.lookups     35164861                       # Number of register rename lookups that rename has made (Count)
board.processor.cores.core.rename.intLookups     35164657                       # Number of integer rename lookups (Count)
board.processor.cores.core.rename.committedMaps      6296498                       # Number of HB maps that are committed (Count)
board.processor.cores.core.rename.undoneMaps      5140086                       # Number of HB maps that are undone due to squashing (Count)
board.processor.cores.core.rename.serializing           65                       # count of serializing insts renamed (Count)
board.processor.cores.core.rename.tempSerializing           66                       # count of temporary serializing insts renamed (Count)
board.processor.cores.core.rename.skidInsts      1029964                       # count of insts added to the skid buffer (Count)
board.processor.cores.core.rob.reads         27904039                       # The number of ROB reads (Count)
board.processor.cores.core.rob.writes        43940668                       # The number of ROB writes (Count)
board.processor.cores.core.thread_0.numInsts     12598487                       # Number of Instructions committed (Count)
board.processor.cores.core.thread_0.numOps     12598509                       # Number of Ops committed (Count)
board.processor.cores.core.thread_0.numMemRefs            0                       # Number of Memory References (Count)
board.processor.cores.core.workload.numSyscalls            2                       # Number of system calls (Count)
board.workload.inst.arm                             0                       # number of arm instructions executed (Count)
board.workload.inst.quiesce                         0                       # number of quiesce instructions executed (Count)

---------- End Simulation Statistics   ----------
