
---------- Begin Simulation Statistics ----------
simSeconds                                   0.000740                       # Number of seconds simulated (Second)
simTicks                                    740392533                       # Number of ticks simulated (Tick)
finalTick                                  1066015251                       # Number of ticks from beginning of simulation (restored from checkpoints and never reset) (Tick)
simFreq                                  1000000000000                       # The number of ticks per simulated second ((Tick/Second))
hostSeconds                                     41.71                       # Real time elapsed on the host (Second)
hostTickRate                                 17750452                       # The number of ticks simulated per host second (ticks/s) ((Tick/Second))
hostMemory                                    1752444                       # Number of bytes of host memory used (Byte)
simInsts                                      1763815                       # Number of instructions simulated (Count)
simOps                                        2989242                       # Number of ops (including micro ops) simulated (Count)
hostInstRate                                    42286                       # Simulator instruction rate (inst/s) ((Count/Second))
hostOpRate                                      71665                       # Simulator op (including micro ops) rate (op/s) ((Count/Second))
board.cache_hierarchy.ruby_system.delayHistogram::bucket_size         1024                       # delay histogram for all message (Unspecified)
board.cache_hierarchy.ruby_system.delayHistogram::max_bucket        10239                       # delay histogram for all message (Unspecified)
board.cache_hierarchy.ruby_system.delayHistogram::samples        87151                       # delay histogram for all message (Unspecified)
board.cache_hierarchy.ruby_system.delayHistogram::mean  1245.896043                       # delay histogram for all message (Unspecified)
board.cache_hierarchy.ruby_system.delayHistogram::stdev  3076.851511                       # delay histogram for all message (Unspecified)
board.cache_hierarchy.ruby_system.delayHistogram |       75040     86.10%     86.10% |         132      0.15%     86.25% |         118      0.14%     86.39% |         145      0.17%     86.56% |         154      0.18%     86.73% |         206      0.24%     86.97% |         182      0.21%     87.18% |         919      1.05%     88.23% |        4651      5.34%     93.57% |        5604      6.43%    100.00% # delay histogram for all message (Unspecified)
board.cache_hierarchy.ruby_system.delayHistogram::total        87151                       # delay histogram for all message (Unspecified)
board.cache_hierarchy.ruby_system.m_outstandReqHistSeqr::bucket_size            2                       (Unspecified)
board.cache_hierarchy.ruby_system.m_outstandReqHistSeqr::max_bucket           19                       (Unspecified)
board.cache_hierarchy.ruby_system.m_outstandReqHistSeqr::samples      1069717                       (Unspecified)
board.cache_hierarchy.ruby_system.m_outstandReqHistSeqr::mean     1.240173                       (Unspecified)
board.cache_hierarchy.ruby_system.m_outstandReqHistSeqr::gmean     1.163456                       (Unspecified)
board.cache_hierarchy.ruby_system.m_outstandReqHistSeqr::stdev     0.554212                       (Unspecified)
board.cache_hierarchy.ruby_system.m_outstandReqHistSeqr |      864885     80.85%     80.85% |      200269     18.72%     99.57% |        4072      0.38%     99.95% |         321      0.03%     99.98% |          83      0.01%     99.99% |          26      0.00%     99.99% |          14      0.00%    100.00% |          29      0.00%    100.00% |          18      0.00%    100.00% |           0      0.00%    100.00% (Unspecified)
board.cache_hierarchy.ruby_system.m_outstandReqHistSeqr::total      1069717                       (Unspecified)
board.cache_hierarchy.ruby_system.m_latencyHistSeqr::bucket_size          256                       (Unspecified)
board.cache_hierarchy.ruby_system.m_latencyHistSeqr::max_bucket         2559                       (Unspecified)
board.cache_hierarchy.ruby_system.m_latencyHistSeqr::samples      1070355                       (Unspecified)
board.cache_hierarchy.ruby_system.m_latencyHistSeqr::mean    24.082860                       (Unspecified)
board.cache_hierarchy.ruby_system.m_latencyHistSeqr::gmean     1.151851                       (Unspecified)
board.cache_hierarchy.ruby_system.m_latencyHistSeqr::stdev   191.848242                       (Unspecified)
board.cache_hierarchy.ruby_system.m_latencyHistSeqr |     1053459     98.42%     98.42% |        1364      0.13%     98.55% |        3442      0.32%     98.87% |         177      0.02%     98.89% |         196      0.02%     98.91% |         423      0.04%     98.94% |        1902      0.18%     99.12% |        9392      0.88%    100.00% |           0      0.00%    100.00% |           0      0.00%    100.00% (Unspecified)
board.cache_hierarchy.ruby_system.m_latencyHistSeqr::total      1070355                       (Unspecified)
board.cache_hierarchy.ruby_system.m_hitLatencyHistSeqr::bucket_size           32                       (Unspecified)
board.cache_hierarchy.ruby_system.m_hitLatencyHistSeqr::max_bucket          319                       (Unspecified)
board.cache_hierarchy.ruby_system.m_hitLatencyHistSeqr::samples      1046980                       (Unspecified)
board.cache_hierarchy.ruby_system.m_hitLatencyHistSeqr::mean     1.001206                       (Unspecified)
board.cache_hierarchy.ruby_system.m_hitLatencyHistSeqr::gmean     1.000439                       (Unspecified)
board.cache_hierarchy.ruby_system.m_hitLatencyHistSeqr::stdev     0.391591                       (Unspecified)
board.cache_hierarchy.ruby_system.m_hitLatencyHistSeqr |     1046977    100.00%    100.00% |           0      0.00%    100.00% |           1      0.00%    100.00% |           0      0.00%    100.00% |           0      0.00%    100.00% |           0      0.00%    100.00% |           0      0.00%    100.00% |           0      0.00%    100.00% |           2      0.00%    100.00% |           0      0.00%    100.00% (Unspecified)
board.cache_hierarchy.ruby_system.m_hitLatencyHistSeqr::total      1046980                       (Unspecified)
board.cache_hierarchy.ruby_system.m_missLatencyHistSeqr::bucket_size          256                       (Unspecified)
board.cache_hierarchy.ruby_system.m_missLatencyHistSeqr::max_bucket         2559                       (Unspecified)
board.cache_hierarchy.ruby_system.m_missLatencyHistSeqr::samples        23375                       (Unspecified)
board.cache_hierarchy.ruby_system.m_missLatencyHistSeqr::mean  1057.923722                       (Unspecified)
board.cache_hierarchy.ruby_system.m_missLatencyHistSeqr::gmean   635.110904                       (Unspecified)
board.cache_hierarchy.ruby_system.m_missLatencyHistSeqr::stdev   769.859775                       (Unspecified)
board.cache_hierarchy.ruby_system.m_missLatencyHistSeqr |        6481     27.73%     27.73% |        1362      5.83%     33.55% |        3442     14.73%     48.28% |         177      0.76%     49.04% |         196      0.84%     49.87% |         423      1.81%     51.68% |        1902      8.14%     59.82% |        9392     40.18%    100.00% |           0      0.00%    100.00% |           0      0.00%    100.00% (Unspecified)
board.cache_hierarchy.ruby_system.m_missLatencyHistSeqr::total        23375                       (Unspecified)
board.cache_hierarchy.ruby_system.delayVCHist.vnet_0::bucket_size         1024                       # delay histogram for vnet_0 (Unspecified)
board.cache_hierarchy.ruby_system.delayVCHist.vnet_0::max_bucket        10239                       # delay histogram for vnet_0 (Unspecified)
board.cache_hierarchy.ruby_system.delayVCHist.vnet_0::samples        43912                       # delay histogram for vnet_0 (Unspecified)
board.cache_hierarchy.ruby_system.delayVCHist.vnet_0::mean  2472.591547                       # delay histogram for vnet_0 (Unspecified)
board.cache_hierarchy.ruby_system.delayVCHist.vnet_0::stdev  3969.394809                       # delay histogram for vnet_0 (Unspecified)
board.cache_hierarchy.ruby_system.delayVCHist.vnet_0 |       31801     72.42%     72.42% |         132      0.30%     72.72% |         118      0.27%     72.99% |         145      0.33%     73.32% |         154      0.35%     73.67% |         206      0.47%     74.14% |         182      0.41%     74.55% |         919      2.09%     76.65% |        4651     10.59%     87.24% |        5604     12.76%    100.00% # delay histogram for vnet_0 (Unspecified)
board.cache_hierarchy.ruby_system.delayVCHist.vnet_0::total        43912                       # delay histogram for vnet_0 (Unspecified)
board.cache_hierarchy.ruby_system.delayVCHist.vnet_1::bucket_size            4                       # delay histogram for vnet_1 (Unspecified)
board.cache_hierarchy.ruby_system.delayVCHist.vnet_1::max_bucket           39                       # delay histogram for vnet_1 (Unspecified)
board.cache_hierarchy.ruby_system.delayVCHist.vnet_1::samples        25715                       # delay histogram for vnet_1 (Unspecified)
board.cache_hierarchy.ruby_system.delayVCHist.vnet_1::mean     0.180673                       # delay histogram for vnet_1 (Unspecified)
board.cache_hierarchy.ruby_system.delayVCHist.vnet_1::stdev     1.239541                       # delay histogram for vnet_1 (Unspecified)
board.cache_hierarchy.ruby_system.delayVCHist.vnet_1 |       25121     97.69%     97.69% |         219      0.85%     98.54% |         314      1.22%     99.76% |          20      0.08%     99.84% |          40      0.16%    100.00% |           1      0.00%    100.00% |           0      0.00%    100.00% |           0      0.00%    100.00% |           0      0.00%    100.00% |           0      0.00%    100.00% # delay histogram for vnet_1 (Unspecified)
board.cache_hierarchy.ruby_system.delayVCHist.vnet_1::total        25715                       # delay histogram for vnet_1 (Unspecified)
board.cache_hierarchy.ruby_system.delayVCHist.vnet_2::bucket_size            1                       # delay histogram for vnet_2 (Unspecified)
board.cache_hierarchy.ruby_system.delayVCHist.vnet_2::max_bucket            9                       # delay histogram for vnet_2 (Unspecified)
board.cache_hierarchy.ruby_system.delayVCHist.vnet_2::samples        17524                       # delay histogram for vnet_2 (Unspecified)
board.cache_hierarchy.ruby_system.delayVCHist.vnet_2 |       17524    100.00%    100.00% |           0      0.00%    100.00% |           0      0.00%    100.00% |           0      0.00%    100.00% |           0      0.00%    100.00% |           0      0.00%    100.00% |           0      0.00%    100.00% |           0      0.00%    100.00% |           0      0.00%    100.00% |           0      0.00%    100.00% # delay histogram for vnet_2 (Unspecified)
board.cache_hierarchy.ruby_system.delayVCHist.vnet_2::total        17524                       # delay histogram for vnet_2 (Unspecified)
board.cache_hierarchy.ruby_system.Directory_Controller.Fetch         1142      0.00%      0.00% (Unspecified)
board.cache_hierarchy.ruby_system.Directory_Controller.Memory_Data         1142      0.00%      0.00% (Unspecified)
board.cache_hierarchy.ruby_system.Directory_Controller.I.Fetch         1142      0.00%      0.00% (Unspecified)
board.cache_hierarchy.ruby_system.Directory_Controller.IM.Memory_Data         1142      0.00%      0.00% (Unspecified)
board.cache_hierarchy.ruby_system.L1Cache_Controller.Load |       13990      3.99%      3.99% |       21043      6.00%      9.99% |       21036      6.00%     15.99% |       21046      6.00%     21.99% |       21033      6.00%     27.99% |       21058      6.00%     33.99% |       21027      6.00%     39.99% |       21046      6.00%     45.99% |       21031      6.00%     51.99% |       21040      6.00%     57.99% |       21044      6.00%     63.99% |       21029      6.00%     69.98% |       21044      6.00%     75.99% |       21055      6.00%     81.99% |       21065      6.01%     88.00% |       21045      6.00%     94.00% |       21048      6.00%    100.00% (Unspecified)
board.cache_hierarchy.ruby_system.L1Cache_Controller.Load::total       350680                       (Unspecified)
board.cache_hierarchy.ruby_system.L1Cache_Controller.Ifetch |       20366      4.78%      4.78% |       25320      5.94%     10.72% |       25339      5.94%     16.66% |       25360      5.95%     22.61% |       25361      5.95%     28.56% |       25362      5.95%     34.51% |       25343      5.94%     40.45% |       25362      5.95%     46.40% |       25343      5.94%     52.34% |       25370      5.95%     58.29% |       25369      5.95%     64.25% |       25351      5.95%     70.19% |       25426      5.96%     76.16% |       25391      5.96%     82.11% |       25460      5.97%     88.08% |       25448      5.97%     94.05% |       25356      5.95%    100.00% (Unspecified)
board.cache_hierarchy.ruby_system.L1Cache_Controller.Ifetch::total       426327                       (Unspecified)
board.cache_hierarchy.ruby_system.L1Cache_Controller.Store |       22707      7.74%      7.74% |       16842      5.74%     13.48% |       16842      5.74%     19.22% |       16842      5.74%     24.96% |       16842      5.74%     30.71% |       16842      5.74%     36.45% |       16842      5.74%     42.19% |       16842      5.74%     47.93% |       16842      5.74%     53.67% |       16842      5.74%     59.41% |       16842      5.74%     65.15% |       16842      5.74%     70.90% |       17134      5.84%     76.74% |       17134      5.84%     82.58% |       17134      5.84%     88.42% |       17134      5.84%     94.26% |       16842      5.74%    100.00% (Unspecified)
board.cache_hierarchy.ruby_system.L1Cache_Controller.Store::total       293347                       (Unspecified)
board.cache_hierarchy.ruby_system.L1Cache_Controller.Inv |          70     28.00%     28.00% |           4      1.60%     29.60% |          10      4.00%     33.60% |          11      4.40%     38.00% |          11      4.40%     42.40% |          12      4.80%     47.20% |          11      4.40%     51.60% |          12      4.80%     56.40% |          14      5.60%     62.00% |          13      5.20%     67.20% |          11      4.40%     71.60% |          10      4.00%     75.60% |          14      5.60%     81.20% |          12      4.80%     86.00% |          13      5.20%     91.20% |          13      5.20%     96.40% |           9      3.60%    100.00% (Unspecified)
board.cache_hierarchy.ruby_system.L1Cache_Controller.Inv::total          250                       (Unspecified)
board.cache_hierarchy.ruby_system.L1Cache_Controller.L1_Replacement |         859     99.54%     99.54% |           0      0.00%     99.54% |           0      0.00%     99.54% |           0      0.00%     99.54% |           0      0.00%     99.54% |           2      0.23%     99.77% |           0      0.00%     99.77% |           0      0.00%     99.77% |           0      0.00%     99.77% |           2      0.23%    100.00% |           0      0.00%    100.00% |           0      0.00%    100.00% |           0      0.00%    100.00% |           0      0.00%    100.00% |           0      0.00%    100.00% |           0      0.00%    100.00% |           0      0.00%    100.00% (Unspecified)
board.cache_hierarchy.ruby_system.L1Cache_Controller.L1_Replacement::total          863                       (Unspecified)
board.cache_hierarchy.ruby_system.L1Cache_Controller.Fwd_GETX |          36      0.22%      0.22% |        1180      7.07%      7.29% |        1037      6.21%     13.50% |        1037      6.21%     19.72% |        1037      6.21%     25.93% |        1037      6.21%     32.15% |        1037      6.21%     38.36% |        1038      6.22%     44.58% |        1037      6.21%     50.80% |        1025      6.14%     56.94% |        1027      6.15%     63.09% |        1027      6.15%     69.25% |        1037      6.21%     75.46% |         996      5.97%     81.43% |        1038      6.22%     87.65% |        1037      6.21%     93.87% |        1023      6.13%    100.00% (Unspecified)
board.cache_hierarchy.ruby_system.L1Cache_Controller.Fwd_GETX::total        16686                       (Unspecified)
board.cache_hierarchy.ruby_system.L1Cache_Controller.Fwd_GETS |         399     67.86%     67.86% |          12      2.04%     69.90% |          12      2.04%     71.94% |          12      2.04%     73.98% |          12      2.04%     76.02% |          12      2.04%     78.06% |          14      2.38%     80.44% |          12      2.04%     82.48% |          13      2.21%     84.69% |           9      1.53%     86.22% |           7      1.19%     87.41% |           8      1.36%     88.78% |          14      2.38%     91.16% |          17      2.89%     94.05% |          12      2.04%     96.09% |          14      2.38%     98.47% |           9      1.53%    100.00% (Unspecified)
board.cache_hierarchy.ruby_system.L1Cache_Controller.Fwd_GETS::total          588                       (Unspecified)
board.cache_hierarchy.ruby_system.L1Cache_Controller.Data |           0      0.00%      0.00% |           0      0.00%      0.00% |           0      0.00%      0.00% |           0      0.00%      0.00% |           0      0.00%      0.00% |           0      0.00%      0.00% |           0      0.00%      0.00% |           0      0.00%      0.00% |           0      0.00%      0.00% |           1     50.00%     50.00% |           1     50.00%    100.00% |           0      0.00%    100.00% |           0      0.00%    100.00% |           0      0.00%    100.00% |           0      0.00%    100.00% |           0      0.00%    100.00% |           0      0.00%    100.00% (Unspecified)
board.cache_hierarchy.ruby_system.L1Cache_Controller.Data::total            2                       (Unspecified)
board.cache_hierarchy.ruby_system.L1Cache_Controller.Data_Exclusive |          68      3.52%      3.52% |         138      7.14%     10.65% |         132      6.83%     17.48% |         132      6.83%     24.30% |         132      6.83%     31.13% |         132      6.83%     37.95% |         133      6.88%     44.83% |         132      6.83%     51.65% |         132      6.83%     58.48% |         132      6.83%     65.31% |         132      6.83%     72.13% |         132      6.83%     78.96% |         132      6.83%     85.78% |         127      6.57%     92.35% |          73      3.77%     96.12% |          35      1.81%     97.93% |          40      2.07%    100.00% (Unspecified)
board.cache_hierarchy.ruby_system.L1Cache_Controller.Data_Exclusive::total         1934                       (Unspecified)
board.cache_hierarchy.ruby_system.L1Cache_Controller.DataS_fromL1 |          38      6.46%      6.46% |          20      3.40%      9.86% |          23      3.91%     13.78% |          17      2.89%     16.67% |          18      3.06%     19.73% |          19      3.23%     22.96% |          17      2.89%     25.85% |          20      3.40%     29.25% |          19      3.23%     32.48% |          19      3.23%     35.71% |          17      2.89%     38.61% |          19      3.23%     41.84% |          13      2.21%     44.05% |          26      4.42%     48.47% |          76     12.93%     61.39% |         111     18.88%     80.27% |         116     19.73%    100.00% (Unspecified)
board.cache_hierarchy.ruby_system.L1Cache_Controller.DataS_fromL1::total          588                       (Unspecified)
board.cache_hierarchy.ruby_system.L1Cache_Controller.Data_all_Acks |         770      3.73%      3.73% |        1370      6.64%     10.37% |        1214      5.88%     16.26% |        1220      5.91%     22.17% |        1220      5.91%     28.08% |        1227      5.95%     34.03% |        1222      5.92%     39.95% |        1220      5.91%     45.87% |        1222      5.92%     51.79% |        1228      5.95%     57.74% |        1224      5.93%     63.68% |        1221      5.92%     69.59% |        1282      6.21%     75.81% |        1230      5.96%     81.77% |        1280      6.20%     87.97% |        1283      6.22%     94.19% |        1198      5.81%    100.00% (Unspecified)
board.cache_hierarchy.ruby_system.L1Cache_Controller.Data_all_Acks::total        20631                       (Unspecified)
board.cache_hierarchy.ruby_system.L1Cache_Controller.Ack |          39     15.73%     15.73% |          13      5.24%     20.97% |          12      4.84%     25.81% |          12      4.84%     30.65% |          12      4.84%     35.48% |          12      4.84%     40.32% |          12      4.84%     45.16% |          13      5.24%     50.40% |          14      5.65%     56.05% |          16      6.45%     62.50% |          15      6.05%     68.55% |          15      6.05%     74.60% |          18      7.26%     81.85% |          12      4.84%     86.69% |           9      3.63%     90.32% |          11      4.44%     94.76% |          13      5.24%    100.00% (Unspecified)
board.cache_hierarchy.ruby_system.L1Cache_Controller.Ack::total          248                       (Unspecified)
board.cache_hierarchy.ruby_system.L1Cache_Controller.Ack_all |          34     15.32%     15.32% |          13      5.86%     21.17% |          12      5.41%     26.58% |          12      5.41%     31.98% |          12      5.41%     37.39% |          12      5.41%     42.79% |          12      5.41%     48.20% |          13      5.86%     54.05% |          12      5.41%     59.46% |          13      5.86%     65.32% |          13      5.86%     71.17% |          13      5.86%     77.03% |           8      3.60%     80.63% |          11      4.95%     85.59% |           9      4.05%     89.64% |          10      4.50%     94.14% |          13      5.86%    100.00% (Unspecified)
board.cache_hierarchy.ruby_system.L1Cache_Controller.Ack_all::total          222                       (Unspecified)
board.cache_hierarchy.ruby_system.L1Cache_Controller.WB_Ack |         360    100.00%    100.00% |           0      0.00%    100.00% |           0      0.00%    100.00% |           0      0.00%    100.00% |           0      0.00%    100.00% |           0      0.00%    100.00% |           0      0.00%    100.00% |           0      0.00%    100.00% |           0      0.00%    100.00% |           0      0.00%    100.00% |           0      0.00%    100.00% |           0      0.00%    100.00% |           0      0.00%    100.00% |           0      0.00%    100.00% |           0      0.00%    100.00% |           0      0.00%    100.00% |           0      0.00%    100.00% (Unspecified)
board.cache_hierarchy.ruby_system.L1Cache_Controller.WB_Ack::total          360                       (Unspecified)
board.cache_hierarchy.ruby_system.L1Cache_Controller.NP.Load |         126      4.65%      4.65% |         163      6.02%     10.67% |         162      5.98%     16.65% |         162      5.98%     22.64% |         162      5.98%     28.62% |         163      6.02%     34.64% |         162      5.98%     40.62% |         162      5.98%     46.60% |         162      5.98%     52.58% |         163      6.02%     58.60% |         162      5.98%     64.59% |         162      5.98%     70.57% |         158      5.83%     76.40% |         158      5.83%     82.24% |         159      5.87%     88.11% |         159      5.87%     93.98% |         163      6.02%    100.00% (Unspecified)
board.cache_hierarchy.ruby_system.L1Cache_Controller.NP.Load::total         2708                       (Unspecified)
board.cache_hierarchy.ruby_system.L1Cache_Controller.NP.Ifetch |         338     11.37%     11.37% |         158      5.31%     16.68% |         157      5.28%     21.96% |         157      5.28%     27.25% |         158      5.31%     32.56% |         164      5.52%     38.08% |         159      5.35%     43.42% |         158      5.31%     48.74% |         158      5.31%     54.05% |         162      5.45%     59.50% |         158      5.31%     64.82% |         157      5.28%     70.10% |         183      6.16%     76.25% |         182      6.12%     82.37% |         183      6.16%     88.53% |         184      6.19%     94.72% |         157      5.28%    100.00% (Unspecified)
board.cache_hierarchy.ruby_system.L1Cache_Controller.NP.Ifetch::total         2973                       (Unspecified)
board.cache_hierarchy.ruby_system.L1Cache_Controller.NP.Store |         395     41.19%     41.19% |          27      2.82%     44.00% |          27      2.82%     46.82% |          27      2.82%     49.64% |          27      2.82%     52.45% |          27      2.82%     55.27% |          27      2.82%     58.08% |          27      2.82%     60.90% |          27      2.82%     63.71% |          27      2.82%     66.53% |          27      2.82%     69.34% |          27      2.82%     72.16% |          61      6.36%     78.52% |          60      6.26%     84.78% |          60      6.26%     91.03% |          60      6.26%     97.29% |          26      2.71%    100.00% (Unspecified)
board.cache_hierarchy.ruby_system.L1Cache_Controller.NP.Store::total          959                       (Unspecified)
board.cache_hierarchy.ruby_system.L1Cache_Controller.NP.Inv |          10    100.00%    100.00% |           0      0.00%    100.00% |           0      0.00%    100.00% |           0      0.00%    100.00% |           0      0.00%    100.00% |           0      0.00%    100.00% |           0      0.00%    100.00% |           0      0.00%    100.00% |           0      0.00%    100.00% |           0      0.00%    100.00% |           0      0.00%    100.00% |           0      0.00%    100.00% |           0      0.00%    100.00% |           0      0.00%    100.00% |           0      0.00%    100.00% |           0      0.00%    100.00% |           0      0.00%    100.00% (Unspecified)
board.cache_hierarchy.ruby_system.L1Cache_Controller.NP.Inv::total           10                       (Unspecified)
board.cache_hierarchy.ruby_system.L1Cache_Controller.I.Load |          15     39.47%     39.47% |           1      2.63%     42.11% |           0      0.00%     42.11% |           0      0.00%     42.11% |           0      0.00%     42.11% |           1      2.63%     44.74% |           0      0.00%     44.74% |           2      5.26%     50.00% |           2      5.26%     55.26% |           4     10.53%     65.79% |           3      7.89%     73.68% |           2      5.26%     78.95% |           1      2.63%     81.58% |           1      2.63%     84.21% |           3      7.89%     92.11% |           2      5.26%     97.37% |           1      2.63%    100.00% (Unspecified)
board.cache_hierarchy.ruby_system.L1Cache_Controller.I.Load::total           38                       (Unspecified)
board.cache_hierarchy.ruby_system.L1Cache_Controller.I.Store |           1      0.01%      0.01% |        1179      7.16%      7.16% |        1023      6.21%     13.37% |        1023      6.21%     19.58% |        1023      6.21%     25.79% |        1023      6.21%     32.00% |        1024      6.22%     38.21% |        1023      6.21%     44.42% |        1024      6.22%     50.64% |        1024      6.22%     56.85% |        1024      6.22%     63.07% |        1024      6.22%     69.28% |        1024      6.22%     75.50% |         982      5.96%     81.46% |        1024      6.22%     87.67% |        1024      6.22%     93.89% |        1007      6.11%    100.00% (Unspecified)
board.cache_hierarchy.ruby_system.L1Cache_Controller.I.Store::total        16476                       (Unspecified)
board.cache_hierarchy.ruby_system.L1Cache_Controller.I.L1_Replacement |          58    100.00%    100.00% |           0      0.00%    100.00% |           0      0.00%    100.00% |           0      0.00%    100.00% |           0      0.00%    100.00% |           0      0.00%    100.00% |           0      0.00%    100.00% |           0      0.00%    100.00% |           0      0.00%    100.00% |           0      0.00%    100.00% |           0      0.00%    100.00% |           0      0.00%    100.00% |           0      0.00%    100.00% |           0      0.00%    100.00% |           0      0.00%    100.00% |           0      0.00%    100.00% |           0      0.00%    100.00% (Unspecified)
board.cache_hierarchy.ruby_system.L1Cache_Controller.I.L1_Replacement::total           58                       (Unspecified)
board.cache_hierarchy.ruby_system.L1Cache_Controller.S.Load |         277      5.26%      5.26% |          64      1.22%      6.47% |          72      1.37%      7.84% |          64      1.22%      9.06% |          67      1.27%     10.33% |          71      1.35%     11.68% |          60      1.14%     12.82% |          80      1.52%     14.33% |          84      1.59%     15.93% |          86      1.63%     17.56% |          82      1.56%     19.12% |          81      1.54%     20.66% |          67      1.27%     21.93% |         178      3.38%     25.31% |         957     18.17%     43.48% |        1522     28.90%     72.38% |        1455     27.62%    100.00% (Unspecified)
board.cache_hierarchy.ruby_system.L1Cache_Controller.S.Load::total         5267                       (Unspecified)
board.cache_hierarchy.ruby_system.L1Cache_Controller.S.Ifetch |       20028      4.73%      4.73% |       25162      5.94%     10.67% |       25182      5.95%     16.62% |       25203      5.95%     22.58% |       25203      5.95%     28.53% |       25198      5.95%     34.48% |       25184      5.95%     40.43% |       25204      5.95%     46.38% |       25185      5.95%     52.33% |       25208      5.95%     58.29% |       25211      5.96%     64.24% |       25194      5.95%     70.19% |       25243      5.96%     76.15% |       25209      5.95%     82.11% |       25277      5.97%     88.08% |       25264      5.97%     94.05% |       25199      5.95%    100.00% (Unspecified)
board.cache_hierarchy.ruby_system.L1Cache_Controller.S.Ifetch::total       423354                       (Unspecified)
board.cache_hierarchy.ruby_system.L1Cache_Controller.S.Store |          34     15.45%     15.45% |          13      5.91%     21.36% |          12      5.45%     26.82% |          12      5.45%     32.27% |          12      5.45%     37.73% |          12      5.45%     43.18% |          12      5.45%     48.64% |          13      5.91%     54.55% |          12      5.45%     60.00% |          12      5.45%     65.45% |          12      5.45%     70.91% |          13      5.91%     76.82% |           8      3.64%     80.45% |          11      5.00%     85.45% |           9      4.09%     89.55% |          10      4.55%     94.09% |          13      5.91%    100.00% (Unspecified)
board.cache_hierarchy.ruby_system.L1Cache_Controller.S.Store::total          220                       (Unspecified)
board.cache_hierarchy.ruby_system.L1Cache_Controller.S.Inv |          60     25.00%     25.00% |           4      1.67%     26.67% |          10      4.17%     30.83% |          11      4.58%     35.42% |          11      4.58%     40.00% |          12      5.00%     45.00% |          11      4.58%     49.58% |          12      5.00%     54.58% |          14      5.83%     60.42% |          13      5.42%     65.83% |          11      4.58%     70.42% |          10      4.17%     74.58% |          14      5.83%     80.42% |          12      5.00%     85.42% |          13      5.42%     90.83% |          13      5.42%     96.25% |           9      3.75%    100.00% (Unspecified)
board.cache_hierarchy.ruby_system.L1Cache_Controller.S.Inv::total          240                       (Unspecified)
board.cache_hierarchy.ruby_system.L1Cache_Controller.S.L1_Replacement |         441     99.10%     99.10% |           0      0.00%     99.10% |           0      0.00%     99.10% |           0      0.00%     99.10% |           0      0.00%     99.10% |           2      0.45%     99.55% |           0      0.00%     99.55% |           0      0.00%     99.55% |           0      0.00%     99.55% |           2      0.45%    100.00% |           0      0.00%    100.00% |           0      0.00%    100.00% |           0      0.00%    100.00% |           0      0.00%    100.00% |           0      0.00%    100.00% |           0      0.00%    100.00% |           0      0.00%    100.00% (Unspecified)
board.cache_hierarchy.ruby_system.L1Cache_Controller.S.L1_Replacement::total          445                       (Unspecified)
board.cache_hierarchy.ruby_system.L1Cache_Controller.E.Load |        1571      5.53%      5.53% |        1916      6.74%     12.27% |        1916      6.74%     19.01% |        1916      6.74%     25.75% |        1916      6.74%     32.50% |        1916      6.74%     39.24% |        1920      6.76%     46.00% |        1916      6.74%     52.74% |        1916      6.74%     59.48% |        1916      6.74%     66.22% |        1916      6.74%     72.96% |        1916      6.74%     79.71% |        1916      6.74%     86.45% |        1811      6.37%     92.82% |        1035      3.64%     96.46% |         465      1.64%     98.10% |         540      1.90%    100.00% (Unspecified)
board.cache_hierarchy.ruby_system.L1Cache_Controller.E.Load::total        28418                       (Unspecified)
board.cache_hierarchy.ruby_system.L1Cache_Controller.E.Store |          16     84.21%     84.21% |           0      0.00%     84.21% |           0      0.00%     84.21% |           0      0.00%     84.21% |           0      0.00%     84.21% |           0      0.00%     84.21% |           0      0.00%     84.21% |           0      0.00%     84.21% |           0      0.00%     84.21% |           0      0.00%     84.21% |           0      0.00%     84.21% |           0      0.00%     84.21% |           0      0.00%     84.21% |           0      0.00%     84.21% |           1      5.26%     89.47% |           1      5.26%     94.74% |           1      5.26%    100.00% (Unspecified)
board.cache_hierarchy.ruby_system.L1Cache_Controller.E.Store::total           19                       (Unspecified)
board.cache_hierarchy.ruby_system.L1Cache_Controller.E.L1_Replacement |          12    100.00%    100.00% |           0      0.00%    100.00% |           0      0.00%    100.00% |           0      0.00%    100.00% |           0      0.00%    100.00% |           0      0.00%    100.00% |           0      0.00%    100.00% |           0      0.00%    100.00% |           0      0.00%    100.00% |           0      0.00%    100.00% |           0      0.00%    100.00% |           0      0.00%    100.00% |           0      0.00%    100.00% |           0      0.00%    100.00% |           0      0.00%    100.00% |           0      0.00%    100.00% |           0      0.00%    100.00% (Unspecified)
board.cache_hierarchy.ruby_system.L1Cache_Controller.E.L1_Replacement::total           12                       (Unspecified)
board.cache_hierarchy.ruby_system.L1Cache_Controller.E.Fwd_GETS |           6     15.38%     15.38% |           6     15.38%     30.77% |           2      5.13%     35.90% |           2      5.13%     41.03% |           2      5.13%     46.15% |           2      5.13%     51.28% |           3      7.69%     58.97% |           2      5.13%     64.10% |           2      5.13%     69.23% |           2      5.13%     74.36% |           2      5.13%     79.49% |           2      5.13%     84.62% |           2      5.13%     89.74% |           4     10.26%    100.00% |           0      0.00%    100.00% |           0      0.00%    100.00% |           0      0.00%    100.00% (Unspecified)
board.cache_hierarchy.ruby_system.L1Cache_Controller.E.Fwd_GETS::total           39                       (Unspecified)
board.cache_hierarchy.ruby_system.L1Cache_Controller.M.Load |       12001      3.82%      3.82% |       18899      6.01%      9.83% |       18886      6.01%     15.84% |       18904      6.02%     21.86% |       18888      6.01%     27.87% |       18907      6.02%     33.89% |       18885      6.01%     39.90% |       18886      6.01%     45.90% |       18867      6.00%     51.91% |       18871      6.01%     57.91% |       18881      6.01%     63.92% |       18868      6.00%     69.93% |       18902      6.01%     75.94% |       18907      6.02%     81.96% |       18911      6.02%     87.98% |       18897      6.01%     93.99% |       18889      6.01%    100.00% (Unspecified)
board.cache_hierarchy.ruby_system.L1Cache_Controller.M.Load::total       314249                       (Unspecified)
board.cache_hierarchy.ruby_system.L1Cache_Controller.M.Store |       22261      8.08%      8.08% |       15623      5.67%     13.74% |       15780      5.72%     19.47% |       15780      5.72%     25.19% |       15780      5.72%     30.91% |       15780      5.72%     36.64% |       15779      5.72%     42.36% |       15779      5.72%     48.09% |       15779      5.72%     53.81% |       15779      5.72%     59.53% |       15779      5.72%     65.26% |       15778      5.72%     70.98% |       16041      5.82%     76.80% |       16081      5.83%     82.63% |       16040      5.82%     88.45% |       16039      5.82%     94.27% |       15795      5.73%    100.00% (Unspecified)
board.cache_hierarchy.ruby_system.L1Cache_Controller.M.Store::total       275673                       (Unspecified)
board.cache_hierarchy.ruby_system.L1Cache_Controller.M.L1_Replacement |         348    100.00%    100.00% |           0      0.00%    100.00% |           0      0.00%    100.00% |           0      0.00%    100.00% |           0      0.00%    100.00% |           0      0.00%    100.00% |           0      0.00%    100.00% |           0      0.00%    100.00% |           0      0.00%    100.00% |           0      0.00%    100.00% |           0      0.00%    100.00% |           0      0.00%    100.00% |           0      0.00%    100.00% |           0      0.00%    100.00% |           0      0.00%    100.00% |           0      0.00%    100.00% |           0      0.00%    100.00% (Unspecified)
board.cache_hierarchy.ruby_system.L1Cache_Controller.M.L1_Replacement::total          348                       (Unspecified)
board.cache_hierarchy.ruby_system.L1Cache_Controller.M.Fwd_GETX |          36      0.22%      0.22% |        1180      7.07%      7.29% |        1037      6.21%     13.50% |        1037      6.21%     19.72% |        1037      6.21%     25.93% |        1037      6.21%     32.15% |        1037      6.21%     38.36% |        1038      6.22%     44.58% |        1037      6.21%     50.80% |        1025      6.14%     56.94% |        1027      6.15%     63.09% |        1027      6.15%     69.25% |        1037      6.21%     75.46% |         996      5.97%     81.43% |        1038      6.22%     87.65% |        1037      6.21%     93.87% |        1023      6.13%    100.00% (Unspecified)
board.cache_hierarchy.ruby_system.L1Cache_Controller.M.Fwd_GETX::total        16686                       (Unspecified)
board.cache_hierarchy.ruby_system.L1Cache_Controller.M.Fwd_GETS |         393     71.58%     71.58% |           6      1.09%     72.68% |          10      1.82%     74.50% |          10      1.82%     76.32% |          10      1.82%     78.14% |          10      1.82%     79.96% |          11      2.00%     81.97% |          10      1.82%     83.79% |          11      2.00%     85.79% |           7      1.28%     87.07% |           5      0.91%     87.98% |           6      1.09%     89.07% |          12      2.19%     91.26% |          13      2.37%     93.62% |          12      2.19%     95.81% |          14      2.55%     98.36% |           9      1.64%    100.00% (Unspecified)
board.cache_hierarchy.ruby_system.L1Cache_Controller.M.Fwd_GETS::total          549                       (Unspecified)
board.cache_hierarchy.ruby_system.L1Cache_Controller.IS.Data_Exclusive |          68      3.52%      3.52% |         138      7.14%     10.65% |         132      6.83%     17.48% |         132      6.83%     24.30% |         132      6.83%     31.13% |         132      6.83%     37.95% |         133      6.88%     44.83% |         132      6.83%     51.65% |         132      6.83%     58.48% |         132      6.83%     65.31% |         132      6.83%     72.13% |         132      6.83%     78.96% |         132      6.83%     85.78% |         127      6.57%     92.35% |          73      3.77%     96.12% |          35      1.81%     97.93% |          40      2.07%    100.00% (Unspecified)
board.cache_hierarchy.ruby_system.L1Cache_Controller.IS.Data_Exclusive::total         1934                       (Unspecified)
board.cache_hierarchy.ruby_system.L1Cache_Controller.IS.DataS_fromL1 |          38      6.46%      6.46% |          20      3.40%      9.86% |          23      3.91%     13.78% |          17      2.89%     16.67% |          18      3.06%     19.73% |          19      3.23%     22.96% |          17      2.89%     25.85% |          20      3.40%     29.25% |          19      3.23%     32.48% |          19      3.23%     35.71% |          17      2.89%     38.61% |          19      3.23%     41.84% |          13      2.21%     44.05% |          26      4.42%     48.47% |          76     12.93%     61.39% |         111     18.88%     80.27% |         116     19.73%    100.00% (Unspecified)
board.cache_hierarchy.ruby_system.L1Cache_Controller.IS.DataS_fromL1::total          588                       (Unspecified)
board.cache_hierarchy.ruby_system.L1Cache_Controller.IS.Data_all_Acks |         374     11.69%     11.69% |         164      5.13%     16.82% |         164      5.13%     21.95% |         170      5.32%     27.27% |         170      5.32%     32.58% |         177      5.53%     38.12% |         171      5.35%     43.46% |         170      5.32%     48.78% |         171      5.35%     54.13% |         178      5.57%     59.69% |         174      5.44%     65.13% |         170      5.32%     70.45% |         197      6.16%     76.61% |         188      5.88%     82.49% |         196      6.13%     88.62% |         199      6.22%     94.84% |         165      5.16%    100.00% (Unspecified)
board.cache_hierarchy.ruby_system.L1Cache_Controller.IS.Data_all_Acks::total         3198                       (Unspecified)
board.cache_hierarchy.ruby_system.L1Cache_Controller.IM.Data |           0      0.00%      0.00% |           0      0.00%      0.00% |           0      0.00%      0.00% |           0      0.00%      0.00% |           0      0.00%      0.00% |           0      0.00%      0.00% |           0      0.00%      0.00% |           0      0.00%      0.00% |           0      0.00%      0.00% |           1     50.00%     50.00% |           1     50.00%    100.00% |           0      0.00%    100.00% |           0      0.00%    100.00% |           0      0.00%    100.00% |           0      0.00%    100.00% |           0      0.00%    100.00% |           0      0.00%    100.00% (Unspecified)
board.cache_hierarchy.ruby_system.L1Cache_Controller.IM.Data::total            2                       (Unspecified)
board.cache_hierarchy.ruby_system.L1Cache_Controller.IM.Data_all_Acks |         396      2.27%      2.27% |        1206      6.92%      9.19% |        1050      6.02%     15.21% |        1050      6.02%     21.24% |        1050      6.02%     27.26% |        1050      6.02%     33.28% |        1051      6.03%     39.31% |        1050      6.02%     45.33% |        1051      6.03%     51.36% |        1050      6.02%     57.39% |        1050      6.02%     63.41% |        1051      6.03%     69.44% |        1085      6.22%     75.66% |        1042      5.98%     81.64% |        1084      6.22%     87.86% |        1084      6.22%     94.07% |        1033      5.93%    100.00% (Unspecified)
board.cache_hierarchy.ruby_system.L1Cache_Controller.IM.Data_all_Acks::total        17433                       (Unspecified)
board.cache_hierarchy.ruby_system.L1Cache_Controller.SM.Ack |          39     15.73%     15.73% |          13      5.24%     20.97% |          12      4.84%     25.81% |          12      4.84%     30.65% |          12      4.84%     35.48% |          12      4.84%     40.32% |          12      4.84%     45.16% |          13      5.24%     50.40% |          14      5.65%     56.05% |          16      6.45%     62.50% |          15      6.05%     68.55% |          15      6.05%     74.60% |          18      7.26%     81.85% |          12      4.84%     86.69% |           9      3.63%     90.32% |          11      4.44%     94.76% |          13      5.24%    100.00% (Unspecified)
board.cache_hierarchy.ruby_system.L1Cache_Controller.SM.Ack::total          248                       (Unspecified)
board.cache_hierarchy.ruby_system.L1Cache_Controller.SM.Ack_all |          34     15.32%     15.32% |          13      5.86%     21.17% |          12      5.41%     26.58% |          12      5.41%     31.98% |          12      5.41%     37.39% |          12      5.41%     42.79% |          12      5.41%     48.20% |          13      5.86%     54.05% |          12      5.41%     59.46% |          13      5.86%     65.32% |          13      5.86%     71.17% |          13      5.86%     77.03% |           8      3.60%     80.63% |          11      4.95%     85.59% |           9      4.05%     89.64% |          10      4.50%     94.14% |          13      5.86%    100.00% (Unspecified)
board.cache_hierarchy.ruby_system.L1Cache_Controller.SM.Ack_all::total          222                       (Unspecified)
board.cache_hierarchy.ruby_system.L1Cache_Controller.M_I.WB_Ack |         360    100.00%    100.00% |           0      0.00%    100.00% |           0      0.00%    100.00% |           0      0.00%    100.00% |           0      0.00%    100.00% |           0      0.00%    100.00% |           0      0.00%    100.00% |           0      0.00%    100.00% |           0      0.00%    100.00% |           0      0.00%    100.00% |           0      0.00%    100.00% |           0      0.00%    100.00% |           0      0.00%    100.00% |           0      0.00%    100.00% |           0      0.00%    100.00% |           0      0.00%    100.00% |           0      0.00%    100.00% (Unspecified)
board.cache_hierarchy.ruby_system.L1Cache_Controller.M_I.WB_Ack::total          360                       (Unspecified)
board.cache_hierarchy.ruby_system.L2Cache_Controller.L1_GET_INSTR |         133      4.47%      4.47% |         162      5.45%      9.92% |         219      7.36%     17.28% |         245      8.24%     25.52% |         215      7.23%     32.75% |         180      6.05%     38.80% |         203      6.83%     45.63% |         151      5.08%     50.71% |         200      6.72%     57.43% |         201      6.76%     64.19% |         192      6.46%     70.65% |         192      6.46%     77.10% |         200      6.72%     83.83% |         189      6.36%     90.18% |         167      5.62%     95.80% |         125      4.20%    100.00% (Unspecified)
board.cache_hierarchy.ruby_system.L2Cache_Controller.L1_GET_INSTR::total         2974                       (Unspecified)
board.cache_hierarchy.ruby_system.L2Cache_Controller.L1_GETS |         147      5.35%      5.35% |         193      7.02%     12.37% |         196      7.13%     19.50% |         202      7.35%     26.85% |         184      6.69%     33.54% |         184      6.69%     40.23% |         170      6.18%     46.42% |         140      5.09%     51.51% |         137      4.98%     56.49% |         188      6.84%     63.33% |         190      6.91%     70.24% |         134      4.87%     75.12% |         164      5.97%     81.08% |         152      5.53%     86.61% |         187      6.80%     93.42% |         181      6.58%    100.00% (Unspecified)
board.cache_hierarchy.ruby_system.L2Cache_Controller.L1_GETS::total         2749                       (Unspecified)
board.cache_hierarchy.ruby_system.L2Cache_Controller.L1_GETX |      140369     89.64%     89.64% |       15360      9.81%     99.45% |          52      0.03%     99.49% |          53      0.03%     99.52% |          89      0.06%     99.58% |          96      0.06%     99.64% |          76      0.05%     99.69% |          80      0.05%     99.74% |          80      0.05%     99.79% |          47      0.03%     99.82% |          52      0.03%     99.85% |          32      0.02%     99.87% |          64      0.04%     99.91% |          63      0.04%     99.95% |          43      0.03%     99.98% |          30      0.02%    100.00% (Unspecified)
board.cache_hierarchy.ruby_system.L2Cache_Controller.L1_GETX::total       156586                       (Unspecified)
board.cache_hierarchy.ruby_system.L2Cache_Controller.L1_UPGRADE |           1      0.45%      0.45% |          57     25.91%     26.36% |          29     13.18%     39.55% |          14      6.36%     45.91% |          12      5.45%     51.36% |          33     15.00%     66.36% |           4      1.82%     68.18% |           5      2.27%     70.45% |           2      0.91%     71.36% |           2      0.91%     72.27% |          26     11.82%     84.09% |           0      0.00%     84.09% |          14      6.36%     90.45% |           3      1.36%     91.82% |          17      7.73%     99.55% |           1      0.45%    100.00% (Unspecified)
board.cache_hierarchy.ruby_system.L2Cache_Controller.L1_UPGRADE::total          220                       (Unspecified)
board.cache_hierarchy.ruby_system.L2Cache_Controller.L1_PUTX |           9      2.50%      2.50% |          27      7.50%     10.00% |          15      4.17%     14.17% |          27      7.50%     21.67% |          46     12.78%     34.44% |          31      8.61%     43.06% |          30      8.33%     51.39% |          15      4.17%     55.56% |          15      4.17%     59.72% |          13      3.61%     63.33% |          31      8.61%     71.94% |          12      3.33%     75.28% |          27      7.50%     82.78% |          39     10.83%     93.61% |          15      4.17%     97.78% |           8      2.22%    100.00% (Unspecified)
board.cache_hierarchy.ruby_system.L2Cache_Controller.L1_PUTX::total          360                       (Unspecified)
board.cache_hierarchy.ruby_system.L2Cache_Controller.Mem_Data |          59      5.17%      5.17% |          74      6.48%     11.65% |          78      6.83%     18.48% |          79      6.92%     25.39% |          93      8.14%     33.54% |          94      8.23%     41.77% |          72      6.30%     48.07% |          68      5.95%     54.03% |          70      6.13%     60.16% |          76      6.65%     66.81% |          58      5.08%     71.89% |          43      3.77%     75.66% |          64      5.60%     81.26% |          78      6.83%     88.09% |          67      5.87%     93.96% |          69      6.04%    100.00% (Unspecified)
board.cache_hierarchy.ruby_system.L2Cache_Controller.Mem_Data::total         1142                       (Unspecified)
board.cache_hierarchy.ruby_system.L2Cache_Controller.WB_Data |          22      4.01%      4.01% |          77     14.03%     18.03% |          62     11.29%     29.33% |          35      6.38%     35.70% |          30      5.46%     41.17% |          59     10.75%     51.91% |          19      3.46%     55.37% |          21      3.83%     59.20% |          20      3.64%     62.84% |          40      7.29%     70.13% |          42      7.65%     77.78% |          18      3.28%     81.06% |          27      4.92%     85.97% |          18      3.28%     89.25% |          34      6.19%     95.45% |          25      4.55%    100.00% (Unspecified)
board.cache_hierarchy.ruby_system.L2Cache_Controller.WB_Data::total          549                       (Unspecified)
board.cache_hierarchy.ruby_system.L2Cache_Controller.WB_Data_clean |          12     30.77%     30.77% |           0      0.00%     30.77% |           1      2.56%     33.33% |          13     33.33%     66.67% |           1      2.56%     69.23% |           1      2.56%     71.79% |           1      2.56%     74.36% |           0      0.00%     74.36% |           0      0.00%     74.36% |           1      2.56%     76.92% |           2      5.13%     82.05% |           0      0.00%     82.05% |           1      2.56%     84.62% |           1      2.56%     87.18% |           3      7.69%     94.87% |           2      5.13%    100.00% (Unspecified)
board.cache_hierarchy.ruby_system.L2Cache_Controller.WB_Data_clean::total           39                       (Unspecified)
board.cache_hierarchy.ruby_system.L2Cache_Controller.Unblock |          34      5.78%      5.78% |          77     13.10%     18.88% |          63     10.71%     29.59% |          48      8.16%     37.76% |          31      5.27%     43.03% |          60     10.20%     53.23% |          20      3.40%     56.63% |          21      3.57%     60.20% |          20      3.40%     63.61% |          41      6.97%     70.58% |          44      7.48%     78.06% |          18      3.06%     81.12% |          28      4.76%     85.88% |          19      3.23%     89.12% |          37      6.29%     95.41% |          27      4.59%    100.00% (Unspecified)
board.cache_hierarchy.ruby_system.L2Cache_Controller.Unblock::total          588                       (Unspecified)
board.cache_hierarchy.ruby_system.L2Cache_Controller.Exclusive_Unblock |       12602     64.33%     64.33% |        4259     21.74%     86.07% |         197      1.01%     87.08% |         193      0.99%     88.06% |         237      1.21%     89.27% |         253      1.29%     90.57% |         203      1.04%     91.60% |         202      1.03%     92.63% |         199      1.02%     93.65% |         178      0.91%     94.56% |         198      1.01%     95.57% |         147      0.75%     96.32% |         199      1.02%     97.34% |         185      0.94%     98.28% |         180      0.92%     99.20% |         157      0.80%    100.00% (Unspecified)
board.cache_hierarchy.ruby_system.L2Cache_Controller.Exclusive_Unblock::total        19589                       (Unspecified)
board.cache_hierarchy.ruby_system.L2Cache_Controller.NP.L1_GET_INSTR |          25      6.58%      6.58% |          25      6.58%     13.16% |          27      7.11%     20.26% |          28      7.37%     27.63% |          26      6.84%     34.47% |          26      6.84%     41.32% |          19      5.00%     46.32% |          17      4.47%     50.79% |          20      5.26%     56.05% |          25      6.58%     62.63% |          23      6.05%     68.68% |          21      5.53%     74.21% |          27      7.11%     81.32% |          27      7.11%     88.42% |          21      5.53%     93.95% |          23      6.05%    100.00% (Unspecified)
board.cache_hierarchy.ruby_system.L2Cache_Controller.NP.L1_GET_INSTR::total          380                       (Unspecified)
board.cache_hierarchy.ruby_system.L2Cache_Controller.NP.L1_GETS |           0      0.00%      0.00% |           2      3.23%      3.23% |           0      0.00%      3.23% |           0      0.00%      3.23% |          16     25.81%     29.03% |           1      1.61%     30.65% |           2      3.23%     33.87% |           0      0.00%     33.87% |           0      0.00%     33.87% |          17     27.42%     61.29% |           1      1.61%     62.90% |           2      3.23%     66.13% |           1      1.61%     67.74% |           0      0.00%     67.74% |           3      4.84%     72.58% |          17     27.42%    100.00% (Unspecified)
board.cache_hierarchy.ruby_system.L2Cache_Controller.NP.L1_GETS::total           62                       (Unspecified)
board.cache_hierarchy.ruby_system.L2Cache_Controller.NP.L1_GETX |          34      4.86%      4.86% |          47      6.71%     11.57% |          51      7.29%     18.86% |          51      7.29%     26.14% |          51      7.29%     33.43% |          67      9.57%     43.00% |          51      7.29%     50.29% |          51      7.29%     57.57% |          50      7.14%     64.71% |          34      4.86%     69.57% |          34      4.86%     74.43% |          20      2.86%     77.29% |          36      5.14%     82.43% |          51      7.29%     89.71% |          43      6.14%     95.86% |          29      4.14%    100.00% (Unspecified)
board.cache_hierarchy.ruby_system.L2Cache_Controller.NP.L1_GETX::total          700                       (Unspecified)
board.cache_hierarchy.ruby_system.L2Cache_Controller.SS.L1_GET_INSTR |         108      4.16%      4.16% |         137      5.28%      9.44% |         192      7.40%     16.85% |         217      8.37%     25.21% |         189      7.29%     32.50% |         154      5.94%     38.43% |         184      7.09%     45.53% |         134      5.17%     50.69% |         180      6.94%     57.63% |         176      6.78%     64.42% |         169      6.52%     70.93% |         171      6.59%     77.53% |         173      6.67%     84.19% |         162      6.25%     90.44% |         146      5.63%     96.07% |         102      3.93%    100.00% (Unspecified)
board.cache_hierarchy.ruby_system.L2Cache_Controller.SS.L1_GET_INSTR::total         2594                       (Unspecified)
board.cache_hierarchy.ruby_system.L2Cache_Controller.SS.L1_GETS |           3      1.34%      1.34% |           1      0.45%      1.79% |          17      7.59%      9.38% |          28     12.50%     21.88% |          16      7.14%     29.02% |           0      0.00%     29.02% |          27     12.05%     41.07% |           2      0.89%     41.96% |           0      0.00%     41.96% |          18      8.04%     50.00% |          24     10.71%     60.71% |           1      0.45%     61.16% |          15      6.70%     67.86% |          14      6.25%     74.11% |          30     13.39%     87.50% |          28     12.50%    100.00% (Unspecified)
board.cache_hierarchy.ruby_system.L2Cache_Controller.SS.L1_GETS::total          224                       (Unspecified)
board.cache_hierarchy.ruby_system.L2Cache_Controller.SS.L1_GETX |           0      0.00%      0.00% |           0      0.00%      0.00% |           0      0.00%      0.00% |           0      0.00%      0.00% |           2    100.00%    100.00% |           0      0.00%    100.00% |           0      0.00%    100.00% |           0      0.00%    100.00% |           0      0.00%    100.00% |           0      0.00%    100.00% |           0      0.00%    100.00% |           0      0.00%    100.00% |           0      0.00%    100.00% |           0      0.00%    100.00% |           0      0.00%    100.00% |           0      0.00%    100.00% (Unspecified)
board.cache_hierarchy.ruby_system.L2Cache_Controller.SS.L1_GETX::total            2                       (Unspecified)
board.cache_hierarchy.ruby_system.L2Cache_Controller.SS.L1_UPGRADE |           1      0.45%      0.45% |          57     25.91%     26.36% |          29     13.18%     39.55% |          14      6.36%     45.91% |          12      5.45%     51.36% |          33     15.00%     66.36% |           4      1.82%     68.18% |           5      2.27%     70.45% |           2      0.91%     71.36% |           2      0.91%     72.27% |          26     11.82%     84.09% |           0      0.00%     84.09% |          14      6.36%     90.45% |           3      1.36%     91.82% |          17      7.73%     99.55% |           1      0.45%    100.00% (Unspecified)
board.cache_hierarchy.ruby_system.L2Cache_Controller.SS.L1_UPGRADE::total          220                       (Unspecified)
board.cache_hierarchy.ruby_system.L2Cache_Controller.M.L1_GETS |         110      5.88%      5.88% |         113      6.04%     11.91% |         116      6.20%     18.11% |         126      6.73%     24.84% |         120      6.41%     31.25% |         123      6.57%     37.82% |         121      6.46%     44.28% |         117      6.25%     50.53% |         117      6.25%     56.78% |         112      5.98%     62.77% |         119      6.36%     69.12% |         113      6.04%     75.16% |         120      6.41%     81.57% |         119      6.36%     87.93% |         117      6.25%     94.18% |         109      5.82%    100.00% (Unspecified)
board.cache_hierarchy.ruby_system.L2Cache_Controller.M.L1_GETS::total         1872                       (Unspecified)
board.cache_hierarchy.ruby_system.L2Cache_Controller.M.L1_GETX |           2      4.26%      4.26% |           2      4.26%      8.51% |           1      2.13%     10.64% |           2      4.26%     14.89% |          20     42.55%     57.45% |           1      2.13%     59.57% |           1      2.13%     61.70% |           1      2.13%     63.83% |           2      4.26%     68.09% |           1      2.13%     70.21% |           1      2.13%     72.34% |           0      0.00%     72.34% |          12     25.53%     97.87% |           0      0.00%     97.87% |           0      0.00%     97.87% |           1      2.13%    100.00% (Unspecified)
board.cache_hierarchy.ruby_system.L2Cache_Controller.M.L1_GETX::total           47                       (Unspecified)
board.cache_hierarchy.ruby_system.L2Cache_Controller.MT.L1_GETS |          34      5.78%      5.78% |          77     13.10%     18.88% |          63     10.71%     29.59% |          48      8.16%     37.76% |          31      5.27%     43.03% |          60     10.20%     53.23% |          20      3.40%     56.63% |          21      3.57%     60.20% |          20      3.40%     63.61% |          41      6.97%     70.58% |          44      7.48%     78.06% |          18      3.06%     81.12% |          28      4.76%     85.88% |          19      3.23%     89.12% |          37      6.29%     95.41% |          27      4.59%    100.00% (Unspecified)
board.cache_hierarchy.ruby_system.L2Cache_Controller.MT.L1_GETS::total          588                       (Unspecified)
board.cache_hierarchy.ruby_system.L2Cache_Controller.MT.L1_GETX |       12455     74.64%     74.64% |        4038     24.20%     98.84% |           0      0.00%     98.84% |           0      0.00%     98.84% |          16      0.10%     98.94% |          28      0.17%     99.11% |          24      0.14%     99.25% |          28      0.17%     99.42% |          28      0.17%     99.59% |          12      0.07%     99.66% |          17      0.10%     99.76% |          12      0.07%     99.83% |          16      0.10%     99.93% |          12      0.07%    100.00% |           0      0.00%    100.00% |           0      0.00%    100.00% (Unspecified)
board.cache_hierarchy.ruby_system.L2Cache_Controller.MT.L1_GETX::total        16686                       (Unspecified)
board.cache_hierarchy.ruby_system.L2Cache_Controller.MT.L1_PUTX |           9      2.50%      2.50% |          27      7.50%     10.00% |          15      4.17%     14.17% |          27      7.50%     21.67% |          46     12.78%     34.44% |          31      8.61%     43.06% |          30      8.33%     51.39% |          15      4.17%     55.56% |          15      4.17%     59.72% |          13      3.61%     63.33% |          31      8.61%     71.94% |          12      3.33%     75.28% |          27      7.50%     82.78% |          39     10.83%     93.61% |          15      4.17%     97.78% |           8      2.22%    100.00% (Unspecified)
board.cache_hierarchy.ruby_system.L2Cache_Controller.MT.L1_PUTX::total          360                       (Unspecified)
board.cache_hierarchy.ruby_system.L2Cache_Controller.ISS.Mem_Data |           0      0.00%      0.00% |           2      3.23%      3.23% |           0      0.00%      3.23% |           0      0.00%      3.23% |          16     25.81%     29.03% |           1      1.61%     30.65% |           2      3.23%     33.87% |           0      0.00%     33.87% |           0      0.00%     33.87% |          17     27.42%     61.29% |           1      1.61%     62.90% |           2      3.23%     66.13% |           1      1.61%     67.74% |           0      0.00%     67.74% |           3      4.84%     72.58% |          17     27.42%    100.00% (Unspecified)
board.cache_hierarchy.ruby_system.L2Cache_Controller.ISS.Mem_Data::total           62                       (Unspecified)
board.cache_hierarchy.ruby_system.L2Cache_Controller.IS.Mem_Data |          25      6.58%      6.58% |          25      6.58%     13.16% |          27      7.11%     20.26% |          28      7.37%     27.63% |          26      6.84%     34.47% |          26      6.84%     41.32% |          19      5.00%     46.32% |          17      4.47%     50.79% |          20      5.26%     56.05% |          25      6.58%     62.63% |          23      6.05%     68.68% |          21      5.53%     74.21% |          27      7.11%     81.32% |          27      7.11%     88.42% |          21      5.53%     93.95% |          23      6.05%    100.00% (Unspecified)
board.cache_hierarchy.ruby_system.L2Cache_Controller.IS.Mem_Data::total          380                       (Unspecified)
board.cache_hierarchy.ruby_system.L2Cache_Controller.IM.Mem_Data |          34      4.86%      4.86% |          47      6.71%     11.57% |          51      7.29%     18.86% |          51      7.29%     26.14% |          51      7.29%     33.43% |          67      9.57%     43.00% |          51      7.29%     50.29% |          51      7.29%     57.57% |          50      7.14%     64.71% |          34      4.86%     69.57% |          34      4.86%     74.43% |          20      2.86%     77.29% |          36      5.14%     82.43% |          51      7.29%     89.71% |          43      6.14%     95.86% |          29      4.14%    100.00% (Unspecified)
board.cache_hierarchy.ruby_system.L2Cache_Controller.IM.Mem_Data::total          700                       (Unspecified)
board.cache_hierarchy.ruby_system.L2Cache_Controller.SS_MB.L1_GETS |           0      0.00%      0.00% |           0      0.00%      0.00% |           0      0.00%      0.00% |           0      0.00%      0.00% |           1    100.00%    100.00% |           0      0.00%    100.00% |           0      0.00%    100.00% |           0      0.00%    100.00% |           0      0.00%    100.00% |           0      0.00%    100.00% |           0      0.00%    100.00% |           0      0.00%    100.00% |           0      0.00%    100.00% |           0      0.00%    100.00% |           0      0.00%    100.00% |           0      0.00%    100.00% (Unspecified)
board.cache_hierarchy.ruby_system.L2Cache_Controller.SS_MB.L1_GETS::total            1                       (Unspecified)
board.cache_hierarchy.ruby_system.L2Cache_Controller.SS_MB.Exclusive_Unblock |           1      0.45%      0.45% |          57     25.68%     26.13% |          29     13.06%     39.19% |          14      6.31%     45.50% |          14      6.31%     51.80% |          33     14.86%     66.67% |           4      1.80%     68.47% |           5      2.25%     70.72% |           2      0.90%     71.62% |           2      0.90%     72.52% |          26     11.71%     84.23% |           0      0.00%     84.23% |          14      6.31%     90.54% |           3      1.35%     91.89% |          17      7.66%     99.55% |           1      0.45%    100.00% (Unspecified)
board.cache_hierarchy.ruby_system.L2Cache_Controller.SS_MB.Exclusive_Unblock::total          222                       (Unspecified)
board.cache_hierarchy.ruby_system.L2Cache_Controller.MT_MB.L1_GETS |           0      0.00%      0.00% |           0      0.00%      0.00% |           0      0.00%      0.00% |           0      0.00%      0.00% |           0      0.00%      0.00% |           0      0.00%      0.00% |           0      0.00%      0.00% |           0      0.00%      0.00% |           0      0.00%      0.00% |           0      0.00%      0.00% |           2    100.00%    100.00% |           0      0.00%    100.00% |           0      0.00%    100.00% |           0      0.00%    100.00% |           0      0.00%    100.00% |           0      0.00%    100.00% (Unspecified)
board.cache_hierarchy.ruby_system.L2Cache_Controller.MT_MB.L1_GETS::total            2                       (Unspecified)
board.cache_hierarchy.ruby_system.L2Cache_Controller.MT_MB.L1_GETX |      127878     91.90%     91.90% |       11273      8.10%    100.00% |           0      0.00%    100.00% |           0      0.00%    100.00% |           0      0.00%    100.00% |           0      0.00%    100.00% |           0      0.00%    100.00% |           0      0.00%    100.00% |           0      0.00%    100.00% |           0      0.00%    100.00% |           0      0.00%    100.00% |           0      0.00%    100.00% |           0      0.00%    100.00% |           0      0.00%    100.00% |           0      0.00%    100.00% |           0      0.00%    100.00% (Unspecified)
board.cache_hierarchy.ruby_system.L2Cache_Controller.MT_MB.L1_GETX::total       139151                       (Unspecified)
board.cache_hierarchy.ruby_system.L2Cache_Controller.MT_MB.Exclusive_Unblock |       12601     65.06%     65.06% |        4202     21.70%     86.76% |         168      0.87%     87.63% |         179      0.92%     88.55% |         223      1.15%     89.70% |         220      1.14%     90.84% |         199      1.03%     91.87% |         197      1.02%     92.88% |         197      1.02%     93.90% |         176      0.91%     94.81% |         172      0.89%     95.70% |         147      0.76%     96.46% |         185      0.96%     97.41% |         182      0.94%     98.35% |         163      0.84%     99.19% |         156      0.81%    100.00% (Unspecified)
board.cache_hierarchy.ruby_system.L2Cache_Controller.MT_MB.Exclusive_Unblock::total        19367                       (Unspecified)
board.cache_hierarchy.ruby_system.L2Cache_Controller.MT_IIB.WB_Data |          22      4.19%      4.19% |          59     11.24%     15.43% |          62     11.81%     27.24% |          35      6.67%     33.90% |          29      5.52%     39.43% |          59     11.24%     50.67% |          19      3.62%     54.29% |          20      3.81%     58.10% |          20      3.81%     61.90% |          40      7.62%     69.52% |          39      7.43%     76.95% |          18      3.43%     80.38% |          27      5.14%     85.52% |          18      3.43%     88.95% |          34      6.48%     95.43% |          24      4.57%    100.00% (Unspecified)
board.cache_hierarchy.ruby_system.L2Cache_Controller.MT_IIB.WB_Data::total          525                       (Unspecified)
board.cache_hierarchy.ruby_system.L2Cache_Controller.MT_IIB.WB_Data_clean |          12     44.44%     44.44% |           0      0.00%     44.44% |           1      3.70%     48.15% |           2      7.41%     55.56% |           1      3.70%     59.26% |           1      3.70%     62.96% |           1      3.70%     66.67% |           0      0.00%     66.67% |           0      0.00%     66.67% |           1      3.70%     70.37% |           2      7.41%     77.78% |           0      0.00%     77.78% |           1      3.70%     81.48% |           1      3.70%     85.19% |           2      7.41%     92.59% |           2      7.41%    100.00% (Unspecified)
board.cache_hierarchy.ruby_system.L2Cache_Controller.MT_IIB.WB_Data_clean::total           27                       (Unspecified)
board.cache_hierarchy.ruby_system.L2Cache_Controller.MT_IIB.Unblock |           0      0.00%      0.00% |          18     50.00%     50.00% |           0      0.00%     50.00% |          11     30.56%     80.56% |           1      2.78%     83.33% |           0      0.00%     83.33% |           0      0.00%     83.33% |           1      2.78%     86.11% |           0      0.00%     86.11% |           0      0.00%     86.11% |           3      8.33%     94.44% |           0      0.00%     94.44% |           0      0.00%     94.44% |           0      0.00%     94.44% |           1      2.78%     97.22% |           1      2.78%    100.00% (Unspecified)
board.cache_hierarchy.ruby_system.L2Cache_Controller.MT_IIB.Unblock::total           36                       (Unspecified)
board.cache_hierarchy.ruby_system.L2Cache_Controller.MT_IB.WB_Data |           0      0.00%      0.00% |          18     75.00%     75.00% |           0      0.00%     75.00% |           0      0.00%     75.00% |           1      4.17%     79.17% |           0      0.00%     79.17% |           0      0.00%     79.17% |           1      4.17%     83.33% |           0      0.00%     83.33% |           0      0.00%     83.33% |           3     12.50%     95.83% |           0      0.00%     95.83% |           0      0.00%     95.83% |           0      0.00%     95.83% |           0      0.00%     95.83% |           1      4.17%    100.00% (Unspecified)
board.cache_hierarchy.ruby_system.L2Cache_Controller.MT_IB.WB_Data::total           24                       (Unspecified)
board.cache_hierarchy.ruby_system.L2Cache_Controller.MT_IB.WB_Data_clean |           0      0.00%      0.00% |           0      0.00%      0.00% |           0      0.00%      0.00% |          11     91.67%     91.67% |           0      0.00%     91.67% |           0      0.00%     91.67% |           0      0.00%     91.67% |           0      0.00%     91.67% |           0      0.00%     91.67% |           0      0.00%     91.67% |           0      0.00%     91.67% |           0      0.00%     91.67% |           0      0.00%     91.67% |           0      0.00%     91.67% |           1      8.33%    100.00% |           0      0.00%    100.00% (Unspecified)
board.cache_hierarchy.ruby_system.L2Cache_Controller.MT_IB.WB_Data_clean::total           12                       (Unspecified)
board.cache_hierarchy.ruby_system.L2Cache_Controller.MT_SB.Unblock |          34      6.16%      6.16% |          59     10.69%     16.85% |          63     11.41%     28.26% |          37      6.70%     34.96% |          30      5.43%     40.40% |          60     10.87%     51.27% |          20      3.62%     54.89% |          20      3.62%     58.51% |          20      3.62%     62.14% |          41      7.43%     69.57% |          41      7.43%     76.99% |          18      3.26%     80.25% |          28      5.07%     85.33% |          19      3.44%     88.77% |          36      6.52%     95.29% |          26      4.71%    100.00% (Unspecified)
board.cache_hierarchy.ruby_system.L2Cache_Controller.MT_SB.Unblock::total          552                       (Unspecified)
board.cache_hierarchy.ruby_system.RequestType.LD.latency_hist_seqr::bucket_size          128                       (Unspecified)
board.cache_hierarchy.ruby_system.RequestType.LD.latency_hist_seqr::max_bucket         1279                       (Unspecified)
board.cache_hierarchy.ruby_system.RequestType.LD.latency_hist_seqr::samples       350680                       (Unspecified)
board.cache_hierarchy.ruby_system.RequestType.LD.latency_hist_seqr::mean     1.916434                       (Unspecified)
board.cache_hierarchy.ruby_system.RequestType.LD.latency_hist_seqr::gmean     1.037370                       (Unspecified)
board.cache_hierarchy.ruby_system.RequestType.LD.latency_hist_seqr::stdev    11.066734                       (Unspecified)
board.cache_hierarchy.ruby_system.RequestType.LD.latency_hist_seqr |      350477     99.94%     99.94% |         144      0.04%     99.98% |          57      0.02%    100.00% |           0      0.00%    100.00% |           1      0.00%    100.00% |           0      0.00%    100.00% |           0      0.00%    100.00% |           0      0.00%    100.00% |           0      0.00%    100.00% |           1      0.00%    100.00% (Unspecified)
board.cache_hierarchy.ruby_system.RequestType.LD.latency_hist_seqr::total       350680                       (Unspecified)
board.cache_hierarchy.ruby_system.RequestType.LD.hit_latency_hist_seqr::bucket_size            1                       (Unspecified)
board.cache_hierarchy.ruby_system.RequestType.LD.hit_latency_hist_seqr::max_bucket            9                       (Unspecified)
board.cache_hierarchy.ruby_system.RequestType.LD.hit_latency_hist_seqr::samples       347934                       (Unspecified)
board.cache_hierarchy.ruby_system.RequestType.LD.hit_latency_hist_seqr::mean     1.000009                       (Unspecified)
board.cache_hierarchy.ruby_system.RequestType.LD.hit_latency_hist_seqr::gmean     1.000006                       (Unspecified)
board.cache_hierarchy.ruby_system.RequestType.LD.hit_latency_hist_seqr::stdev     0.002936                       (Unspecified)
board.cache_hierarchy.ruby_system.RequestType.LD.hit_latency_hist_seqr |           0      0.00%      0.00% |      347931    100.00%    100.00% |           3      0.00%    100.00% |           0      0.00%    100.00% |           0      0.00%    100.00% |           0      0.00%    100.00% |           0      0.00%    100.00% |           0      0.00%    100.00% |           0      0.00%    100.00% |           0      0.00%    100.00% (Unspecified)
board.cache_hierarchy.ruby_system.RequestType.LD.hit_latency_hist_seqr::total       347934                       (Unspecified)
board.cache_hierarchy.ruby_system.RequestType.LD.miss_latency_hist_seqr::bucket_size          128                       (Unspecified)
board.cache_hierarchy.ruby_system.RequestType.LD.miss_latency_hist_seqr::max_bucket         1279                       (Unspecified)
board.cache_hierarchy.ruby_system.RequestType.LD.miss_latency_hist_seqr::samples         2746                       (Unspecified)
board.cache_hierarchy.ruby_system.RequestType.LD.miss_latency_hist_seqr::mean   118.032775                       (Unspecified)
board.cache_hierarchy.ruby_system.RequestType.LD.miss_latency_hist_seqr::gmean   108.266111                       (Unspecified)
board.cache_hierarchy.ruby_system.RequestType.LD.miss_latency_hist_seqr::stdev    45.296156                       (Unspecified)
board.cache_hierarchy.ruby_system.RequestType.LD.miss_latency_hist_seqr |        2543     92.61%     92.61% |         144      5.24%     97.85% |          57      2.08%     99.93% |           0      0.00%     99.93% |           1      0.04%     99.96% |           0      0.00%     99.96% |           0      0.00%     99.96% |           0      0.00%     99.96% |           0      0.00%     99.96% |           1      0.04%    100.00% (Unspecified)
board.cache_hierarchy.ruby_system.RequestType.LD.miss_latency_hist_seqr::total         2746                       (Unspecified)
board.cache_hierarchy.ruby_system.RequestType.ST.latency_hist_seqr::bucket_size          256                       (Unspecified)
board.cache_hierarchy.ruby_system.RequestType.ST.latency_hist_seqr::max_bucket         2559                       (Unspecified)
board.cache_hierarchy.ruby_system.RequestType.ST.latency_hist_seqr::samples       193076                       (Unspecified)
board.cache_hierarchy.ruby_system.RequestType.ST.latency_hist_seqr::mean     2.244230                       (Unspecified)
board.cache_hierarchy.ruby_system.RequestType.ST.latency_hist_seqr::gmean     1.030470                       (Unspecified)
board.cache_hierarchy.ruby_system.RequestType.ST.latency_hist_seqr::stdev    19.698306                       (Unspecified)
board.cache_hierarchy.ruby_system.RequestType.ST.latency_hist_seqr |      192705     99.81%     99.81% |         358      0.19%     99.99% |           0      0.00%     99.99% |           0      0.00%     99.99% |          10      0.01%    100.00% |           3      0.00%    100.00% |           0      0.00%    100.00% |           0      0.00%    100.00% |           0      0.00%    100.00% |           0      0.00%    100.00% (Unspecified)
board.cache_hierarchy.ruby_system.RequestType.ST.latency_hist_seqr::total       193076                       (Unspecified)
board.cache_hierarchy.ruby_system.RequestType.ST.hit_latency_hist_seqr::bucket_size           32                       (Unspecified)
[...]
board.processor.cores9.core.decode.branchResolved        10660                       # Number of times decode resolved a branch (Count)
board.processor.cores9.core.decode.branchMispred          113                       # Number of times decode detected a branch misprediction (Count)
board.processor.cores9.core.decode.decodedInsts       340037                       # Number of instructions handled by decode (Count)
board.processor.cores9.core.decode.squashedInsts          576                       # Number of squashed instructions handled by decode (Count)
board.processor.cores9.core.executeStats0.numInsts       219180                       # Number of executed instructions (Count)
board.processor.cores9.core.executeStats0.numNop            0                       # Number of nop insts executed (Count)
board.processor.cores9.core.executeStats0.numBranches        12952                       # Number of branches executed (Count)
board.processor.cores9.core.executeStats0.numLoadInsts        56106                       # Number of load instructions executed (Count)
board.processor.cores9.core.executeStats0.numStoreInsts        16928                       # Number of stores executed (Count)
board.processor.cores9.core.executeStats0.instRate     0.109985                       # Inst execution rate ((Count/Cycle))
board.processor.cores9.core.executeStats0.numCCRegReads        33087                       # Number of times the CC registers were read (Count)
board.processor.cores9.core.executeStats0.numCCRegWrites        50503                       # Number of times the CC registers were written (Count)
board.processor.cores9.core.executeStats0.numFpRegReads           14                       # Number of times the floating registers were read (Count)
board.processor.cores9.core.executeStats0.numFpRegWrites            8                       # Number of times the floating registers were written (Count)
board.processor.cores9.core.executeStats0.numIntRegReads       270997                       # Number of times the integer registers were read (Count)
board.processor.cores9.core.executeStats0.numIntRegWrites       176312                       # Number of times the integer registers were written (Count)
board.processor.cores9.core.executeStats0.numMemRefs        73034                       # Number of memory refs (Count)
board.processor.cores9.core.executeStats0.numMiscRegReads       100984                       # Number of times the Misc registers were read (Count)
board.processor.cores9.core.executeStats0.numMiscRegWrites            1                       # Number of times the Misc registers were written (Count)
board.processor.cores9.core.executeStats0.numVecAluAccesses            0                       # Number of vector alu accesses (Count)
board.processor.cores9.core.executeStats0.numDiscardedOps            0                       # Number of ops (including micro ops) which were discarded before commit (Count)
board.processor.cores9.core.fetch.predictedBranches        18977                       # Number of branches that fetch has predicted taken (Count)
board.processor.cores9.core.fetch.cycles      1950985                       # Number of cycles fetch has run and was not squashing or blocked (Cycle)
board.processor.cores9.core.fetch.squashCycles         4714                       # Number of cycles fetch has spent squashing (Cycle)
board.processor.cores9.core.fetch.miscStallCycles           91                       # Number of cycles fetch has spent waiting on interrupts, or bad addresses, or out of MSHRs (Cycle)
board.processor.cores9.core.fetch.pendingTrapStallCycles          556                       # Number of stall cycles due to pending traps (Cycle)
board.processor.cores9.core.fetch.cacheLines        25391                       # Number of cache lines fetched (Count)
board.processor.cores9.core.fetch.icacheSquashes           79                       # Number of outstanding Icache misses that were squashed (Count)
board.processor.cores9.core.fetch.nisnDist::samples      1985420                       # Number of instructions fetched each cycle (Total) (Count)
board.processor.cores9.core.fetch.nisnDist::mean     0.204143                       # Number of instructions fetched each cycle (Total) (Count)
board.processor.cores9.core.fetch.nisnDist::stdev     1.212643                       # Number of instructions fetched each cycle (Total) (Count)
board.processor.cores9.core.fetch.nisnDist::underflows            0      0.00%      0.00% # Number of instructions fetched each cycle (Total) (Count)
board.processor.cores9.core.fetch.nisnDist::0      1926435     97.03%     97.03% # Number of instructions fetched each cycle (Total) (Count)
board.processor.cores9.core.fetch.nisnDist::1          198      0.01%     97.04% # Number of instructions fetched each cycle (Total) (Count)
board.processor.cores9.core.fetch.nisnDist::2         6165      0.31%     97.35% # Number of instructions fetched each cycle (Total) (Count)
board.processor.cores9.core.fetch.nisnDist::3           90      0.00%     97.35% # Number of instructions fetched each cycle (Total) (Count)
board.processor.cores9.core.fetch.nisnDist::4         2123      0.11%     97.46% # Number of instructions fetched each cycle (Total) (Count)
board.processor.cores9.core.fetch.nisnDist::5          158      0.01%     97.47% # Number of instructions fetched each cycle (Total) (Count)
board.processor.cores9.core.fetch.nisnDist::6         2171      0.11%     97.58% # Number of instructions fetched each cycle (Total) (Count)
board.processor.cores9.core.fetch.nisnDist::7        14437      0.73%     98.31% # Number of instructions fetched each cycle (Total) (Count)
board.processor.cores9.core.fetch.nisnDist::8        33643      1.69%    100.00% # Number of instructions fetched each cycle (Total) (Count)
board.processor.cores9.core.fetch.nisnDist::overflows            0      0.00%    100.00% # Number of instructions fetched each cycle (Total) (Count)
board.processor.cores9.core.fetch.nisnDist::min_value            0                       # Number of instructions fetched each cycle (Total) (Count)
board.processor.cores9.core.fetch.nisnDist::max_value            8                       # Number of instructions fetched each cycle (Total) (Count)
board.processor.cores9.core.fetch.nisnDist::total      1985420                       # Number of instructions fetched each cycle (Total) (Count)
board.processor.cores9.core.fetchStats0.numInsts       240222                       # Number of instructions fetched (thread level) (Count)
board.processor.cores9.core.fetchStats0.numOps            0                       # Number of ops (including micro ops) fetched (thread level) (Count)
board.processor.cores9.core.fetchStats0.fetchRate     0.120544                       # Number of inst fetches per cycle ((Count/Cycle))
board.processor.cores9.core.fetchStats0.numBranches        25714                       # Number of branches fetched (Count)
board.processor.cores9.core.fetchStats0.branchRate     0.012903                       # Number of branch fetches per cycle (Ratio)
board.processor.cores9.core.fetchStats0.icacheStallCycles        31431                       # ICache total stall cycles (Cycle)
board.processor.cores9.core.fetchStats0.numFetchSuspends            0                       # Number of times Execute suspended instruction fetching (Count)
board.processor.cores9.core.iew.idleCycles            0                       # Number of cycles IEW is idle (Cycle)
board.processor.cores9.core.iew.squashCycles         2246                       # Number of cycles IEW is squashing (Cycle)
board.processor.cores9.core.iew.blockCycles      1874351                       # Number of cycles IEW is blocking (Cycle)
board.processor.cores9.core.iew.unblockCycles         4661                       # Number of cycles IEW is unblocking (Cycle)
board.processor.cores9.core.iew.dispatchedInsts       306660                       # Number of instructions dispatched to IQ (Count)
board.processor.cores9.core.iew.dispSquashedInsts            2                       # Number of squashed instructions skipped by dispatch (Count)
board.processor.cores9.core.iew.dispLoadInsts        76883                       # Number of dispatched load instructions (Count)
board.processor.cores9.core.iew.dispStoreInsts        25209                       # Number of dispatched store instructions (Count)
board.processor.cores9.core.iew.dispNonSpecInsts         4121                       # Number of dispatched non-speculative instructions (Count)
board.processor.cores9.core.iew.iqFullEvents          420                       # Number of times the IQ has become full, causing a stall (Count)
board.processor.cores9.core.iew.lsqFullEvents          145                       # Number of times the LSQ has become full, causing a stall (Count)
board.processor.cores9.core.iew.memOrderViolationEvents         2055                       # Number of memory order violations (Count)
board.processor.cores9.core.iew.predictedTakenIncorrect            7                       # Number of branches that were predicted taken incorrectly (Count)
board.processor.cores9.core.iew.predictedNotTakenIncorrect          189                       # Number of branches that were predicted not taken incorrectly (Count)
board.processor.cores9.core.iew.branchMispredicts          196                       # Number of branch mispredicts detected at execute (Count)
board.processor.cores9.core.iew.instsToCommit       219149                       # Cumulative count of insts sent to commit (Count)
board.processor.cores9.core.iew.writebackCount       218951                       # Cumulative count of insts written-back (Count)
board.processor.cores9.core.iew.producerInst       161269                       # Number of instructions producing a value (Count)
board.processor.cores9.core.iew.consumerInst       255525                       # Number of instructions consuming a value (Count)
board.processor.cores9.core.iew.wbRate       0.109870                       # Insts written-back per cycle ((Count/Cycle))
board.processor.cores9.core.iew.wbFanout     0.631128                       # Average fanout of values written-back ((Count/Count))
board.processor.cores9.core.interrupts.clk_domain.clock         5328                       # Clock period in ticks (Tick)
board.processor.cores9.core.lsq0.forwLoads         4270                       # Number of loads that had data forwarded from stores (Count)
board.processor.cores9.core.lsq0.squashedLoads        43544                       # Number of loads squashed (Count)
board.processor.cores9.core.lsq0.ignoredResponses            0                       # Number of memory responses ignored because the instruction is squashed (Count)
board.processor.cores9.core.lsq0.memOrderViolation         2055                       # Number of memory ordering violations (Count)
board.processor.cores9.core.lsq0.squashedStores        12480                       # Number of stores squashed (Count)
board.processor.cores9.core.lsq0.rescheduledLoads            0                       # Number of loads that were rescheduled (Count)
board.processor.cores9.core.lsq0.blockedByCache            0                       # Number of times an access to memory failed due to the cache being blocked (Count)
board.processor.cores9.core.lsq0.loadToUse::samples        33339                       # Distribution of cycle latency between the first time a load is issued and its completion (Unspecified)
board.processor.cores9.core.lsq0.loadToUse::mean    57.740514                       # Distribution of cycle latency between the first time a load is issued and its completion (Unspecified)
board.processor.cores9.core.lsq0.loadToUse::stdev   306.449835                       # Distribution of cycle latency between the first time a load is issued and its completion (Unspecified)
board.processor.cores9.core.lsq0.loadToUse::0-9        32147     96.42%     96.42% # Distribution of cycle latency between the first time a load is issued and its completion (Unspecified)
board.processor.cores9.core.lsq0.loadToUse::10-19            8      0.02%     96.45% # Distribution of cycle latency between the first time a load is issued and its completion (Unspecified)
board.processor.cores9.core.lsq0.loadToUse::60-69            1      0.00%     96.45% # Distribution of cycle latency between the first time a load is issued and its completion (Unspecified)
board.processor.cores9.core.lsq0.loadToUse::80-89            2      0.01%     96.46% # Distribution of cycle latency between the first time a load is issued and its completion (Unspecified)
board.processor.cores9.core.lsq0.loadToUse::110-119          128      0.38%     96.84% # Distribution of cycle latency between the first time a load is issued and its completion (Unspecified)
board.processor.cores9.core.lsq0.loadToUse::120-129           13      0.04%     96.88% # Distribution of cycle latency between the first time a load is issued and its completion (Unspecified)
board.processor.cores9.core.lsq0.loadToUse::160-169            1      0.00%     96.88% # Distribution of cycle latency between the first time a load is issued and its completion (Unspecified)
board.processor.cores9.core.lsq0.loadToUse::170-179           11      0.03%     96.92% # Distribution of cycle latency between the first time a load is issued and its completion (Unspecified)
board.processor.cores9.core.lsq0.loadToUse::180-189            1      0.00%     96.92% # Distribution of cycle latency between the first time a load is issued and its completion (Unspecified)
board.processor.cores9.core.lsq0.loadToUse::220-229            1      0.00%     96.92% # Distribution of cycle latency between the first time a load is issued and its completion (Unspecified)
board.processor.cores9.core.lsq0.loadToUse::290-299            1      0.00%     96.93% # Distribution of cycle latency between the first time a load is issued and its completion (Unspecified)
board.processor.cores9.core.lsq0.loadToUse::overflows         1025      3.07%    100.00% # Distribution of cycle latency between the first time a load is issued and its completion (Unspecified)
board.processor.cores9.core.lsq0.loadToUse::min_value            2                       # Distribution of cycle latency between the first time a load is issued and its completion (Unspecified)
board.processor.cores9.core.lsq0.loadToUse::max_value         1843                       # Distribution of cycle latency between the first time a load is issued and its completion (Unspecified)
board.processor.cores9.core.lsq0.loadToUse::total        33339                       # Distribution of cycle latency between the first time a load is issued and its completion (Unspecified)
board.processor.cores9.core.mmu.dtb.rdAccesses        56106                       # TLB accesses on read requests (Count)
board.processor.cores9.core.mmu.dtb.wrAccesses        16928                       # TLB accesses on write requests (Count)
board.processor.cores9.core.mmu.dtb.rdMisses           65                       # TLB misses on read requests (Count)
board.processor.cores9.core.mmu.dtb.wrMisses           10                       # TLB misses on write requests (Count)
board.processor.cores9.core.mmu.dtb.walker.power_state.pwrStateResidencyTicks::UNDEFINED   1066015251                       # Cumulative time (in ticks) in various power states (Tick)
board.processor.cores9.core.mmu.itb.rdAccesses            0                       # TLB accesses on read requests (Count)
board.processor.cores9.core.mmu.itb.wrAccesses        25485                       # TLB accesses on write requests (Count)
board.processor.cores9.core.mmu.itb.rdMisses            0                       # TLB misses on read requests (Count)
board.processor.cores9.core.mmu.itb.wrMisses          133                       # TLB misses on write requests (Count)
board.processor.cores9.core.mmu.itb.walker.power_state.pwrStateResidencyTicks::UNDEFINED   1066015251                       # Cumulative time (in ticks) in various power states (Tick)
board.processor.cores9.core.power_state.pwrStateResidencyTicks::ON   1066015251                       # Cumulative time (in ticks) in various power states (Tick)
board.processor.cores9.core.rename.squashCycles         2246                       # Number of cycles rename is squashing (Cycle)
board.processor.cores9.core.rename.idleCycles        21323                       # Number of cycles rename is idle (Cycle)
board.processor.cores9.core.rename.blockCycles      1896001                       # Number of cycles rename is blocking (Cycle)
board.processor.cores9.core.rename.serializeStallCycles            0                       # count of cycles rename stalled for serializing inst (Cycle)
board.processor.cores9.core.rename.runCycles        39924                       # Number of cycles rename is running (Cycle)
board.processor.cores9.core.rename.unblockCycles        25926                       # Number of cycles rename is unblocking (Cycle)
board.processor.cores9.core.rename.renamedInsts       323406                       # Number of instructions processed by rename (Count)
board.processor.cores9.core.rename.ROBFullEvents            8                       # Number of times rename has blocked due to ROB full (Count)
board.processor.cores9.core.rename.IQFullEvents        22473                       # Number of times rename has blocked due to IQ full (Count)
board.processor.cores9.core.rename.LQFullEvents           64                       # Number of times rename has blocked due to LQ full (Count)
board.processor.cores9.core.rename.SQFullEvents          947                       # Number of times rename has blocked due to SQ full (Count)
board.processor.cores9.core.rename.renamedOperands       492439                       # Number of destination operands rename has renamed (Count)
board.processor.cores9.core.rename.lookups       990091                       # Number of register rename lookups that rename has made (Count)
board.processor.cores9.core.rename.intLookups       431616                       # Number of integer rename lookups (Count)
board.processor.cores9.core.rename.fpLookups           14                       # Number of floating rename lookups (Count)
board.processor.cores9.core.rename.committedMaps       196362                       # Number of HB maps that are committed (Count)
board.processor.cores9.core.rename.undoneMaps       296077                       # Number of HB maps that are undone due to squashing (Count)
board.processor.cores9.core.rename.serializing            0                       # count of serializing insts renamed (Count)
board.processor.cores9.core.rename.tempSerializing            0                       # count of temporary serializing insts renamed (Count)
board.processor.cores9.core.rename.skidInsts        59274                       # count of insts added to the skid buffer (Count)
board.processor.cores9.core.rob.reads         2264516                       # The number of ROB reads (Count)
board.processor.cores9.core.rob.writes         636111                       # The number of ROB writes (Count)
board.processor.cores9.core.thread_0.numInsts        77732                       # Number of Instructions committed (Count)
board.processor.cores9.core.thread_0.numOps       133179                       # Number of Ops committed (Count)
board.processor.cores9.core.thread_0.numMemRefs            0                       # Number of Memory References (Count)
board.workload.inst.arm                             0                       # number of arm instructions executed (Count)
board.workload.inst.quiesce                         0                       # number of quiesce instructions executed (Count)

---------- End Simulation Statistics   ----------
