
---------- Begin Simulation Statistics ----------
simSeconds                                   0.000146                       # Number of seconds simulated (Second)
simTicks                                    146165022                       # Number of ticks simulated (Tick)
finalTick                                   410320935                       # Number of ticks from beginning of simulation (restored from checkpoints and never reset) (Tick)
simFreq                                  1000000000000                       # The number of ticks per simulated second ((Tick/Second))
hostSeconds                                     29.78                       # Real time elapsed on the host (Second)
hostTickRate                                  4908940                       # The number of ticks simulated per host second (ticks/s) ((Tick/Second))
hostMemory                                    1758588                       # Number of bytes of host memory used (Byte)
simInsts                                      1702864                       # Number of instructions simulated (Count)
simOps                                        2637332                       # Number of ops (including micro ops) simulated (Count)
hostInstRate                                    57190                       # Simulator instruction rate (inst/s) ((Count/Second))
hostOpRate                                      88573                       # Simulator op (including micro ops) rate (op/s) ((Count/Second))
board.cache_hierarchy.ruby_system.delayHistogram::bucket_size          256                       # delay histogram for all message (Unspecified)
board.cache_hierarchy.ruby_system.delayHistogram::max_bucket         2559                       # delay histogram for all message (Unspecified)
board.cache_hierarchy.ruby_system.delayHistogram::samples        90582                       # delay histogram for all message (Unspecified)
board.cache_hierarchy.ruby_system.delayHistogram::mean     2.364178                       # delay histogram for all message (Unspecified)
board.cache_hierarchy.ruby_system.delayHistogram::stdev    14.478504                       # delay histogram for all message (Unspecified)
board.cache_hierarchy.ruby_system.delayHistogram |       90558     99.97%     99.97% |          11      0.01%     99.99% |           4      0.00%     99.99% |           4      0.00%     99.99% |           3      0.00%    100.00% |           2      0.00%    100.00% |           0      0.00%    100.00% |           0      0.00%    100.00% |           0      0.00%    100.00% |           0      0.00%    100.00% # delay histogram for all message (Unspecified)
board.cache_hierarchy.ruby_system.delayHistogram::total        90582                       # delay histogram for all message (Unspecified)
board.cache_hierarchy.ruby_system.m_outstandReqHistSeqr::bucket_size            2                       (Unspecified)
board.cache_hierarchy.ruby_system.m_outstandReqHistSeqr::max_bucket           19                       (Unspecified)
board.cache_hierarchy.ruby_system.m_outstandReqHistSeqr::samples      1104538                       (Unspecified)
board.cache_hierarchy.ruby_system.m_outstandReqHistSeqr::mean     1.228802                       (Unspecified)
board.cache_hierarchy.ruby_system.m_outstandReqHistSeqr::gmean     1.164110                       (Unspecified)
board.cache_hierarchy.ruby_system.m_outstandReqHistSeqr::stdev     0.504433                       (Unspecified)
board.cache_hierarchy.ruby_system.m_outstandReqHistSeqr |      871844     78.93%     78.93% |      228523     20.69%     99.62% |        3367      0.30%     99.93% |         341      0.03%     99.96% |         196      0.02%     99.98% |         128      0.01%     99.99% |          84      0.01%    100.00% |          48      0.00%    100.00% |           7      0.00%    100.00% |           0      0.00%    100.00% (Unspecified)
board.cache_hierarchy.ruby_system.m_outstandReqHistSeqr::total      1104538                       (Unspecified)
board.cache_hierarchy.ruby_system.m_latencyHistSeqr::bucket_size          256                       (Unspecified)
board.cache_hierarchy.ruby_system.m_latencyHistSeqr::max_bucket         2559                       (Unspecified)
board.cache_hierarchy.ruby_system.m_latencyHistSeqr::samples      1104886                       (Unspecified)
board.cache_hierarchy.ruby_system.m_latencyHistSeqr::mean     3.216392                       (Unspecified)
board.cache_hierarchy.ruby_system.m_latencyHistSeqr::gmean     1.151925                       (Unspecified)
board.cache_hierarchy.ruby_system.m_latencyHistSeqr::stdev    13.593534                       (Unspecified)
board.cache_hierarchy.ruby_system.m_latencyHistSeqr |     1104809     99.99%     99.99% |          63      0.01%    100.00% |           2      0.00%    100.00% |           2      0.00%    100.00% |           8      0.00%    100.00% |           2      0.00%    100.00% |           0      0.00%    100.00% |           0      0.00%    100.00% |           0      0.00%    100.00% |           0      0.00%    100.00% (Unspecified)
board.cache_hierarchy.ruby_system.m_latencyHistSeqr::total      1104886                       (Unspecified)
board.cache_hierarchy.ruby_system.m_hitLatencyHistSeqr::bucket_size           32                       (Unspecified)
board.cache_hierarchy.ruby_system.m_hitLatencyHistSeqr::max_bucket          319                       (Unspecified)
board.cache_hierarchy.ruby_system.m_hitLatencyHistSeqr::samples      1066652                       (Unspecified)
board.cache_hierarchy.ruby_system.m_hitLatencyHistSeqr::mean     1.001112                       (Unspecified)
board.cache_hierarchy.ruby_system.m_hitLatencyHistSeqr::gmean     1.000258                       (Unspecified)
board.cache_hierarchy.ruby_system.m_hitLatencyHistSeqr::stdev     0.366298                       (Unspecified)
board.cache_hierarchy.ruby_system.m_hitLatencyHistSeqr |     1066647    100.00%    100.00% |           0      0.00%    100.00% |           0      0.00%    100.00% |           1      0.00%    100.00% |           0      0.00%    100.00% |           3      0.00%    100.00% |           1      0.00%    100.00% |           0      0.00%    100.00% |           0      0.00%    100.00% |           0      0.00%    100.00% (Unspecified)
board.cache_hierarchy.ruby_system.m_hitLatencyHistSeqr::total      1066652                       (Unspecified)
board.cache_hierarchy.ruby_system.m_missLatencyHistSeqr::bucket_size          256                       (Unspecified)
board.cache_hierarchy.ruby_system.m_missLatencyHistSeqr::max_bucket         2559                       (Unspecified)
board.cache_hierarchy.ruby_system.m_missLatencyHistSeqr::samples        38234                       (Unspecified)
board.cache_hierarchy.ruby_system.m_missLatencyHistSeqr::mean    65.018256                       (Unspecified)
board.cache_hierarchy.ruby_system.m_missLatencyHistSeqr::gmean    59.145082                       (Unspecified)
board.cache_hierarchy.ruby_system.m_missLatencyHistSeqr::stdev    37.145680                       (Unspecified)
board.cache_hierarchy.ruby_system.m_missLatencyHistSeqr |       38157     99.80%     99.80% |          63      0.16%     99.96% |           2      0.01%     99.97% |           2      0.01%     99.97% |           8      0.02%     99.99% |           2      0.01%    100.00% |           0      0.00%    100.00% |           0      0.00%    100.00% |           0      0.00%    100.00% |           0      0.00%    100.00% (Unspecified)
board.cache_hierarchy.ruby_system.m_missLatencyHistSeqr::total        38234                       (Unspecified)
board.cache_hierarchy.ruby_system.delayVCHist.vnet_0::bucket_size          256                       # delay histogram for vnet_0 (Unspecified)
board.cache_hierarchy.ruby_system.delayVCHist.vnet_0::max_bucket         2559                       # delay histogram for vnet_0 (Unspecified)
board.cache_hierarchy.ruby_system.delayVCHist.vnet_0::samples        44770                       # delay histogram for vnet_0 (Unspecified)
board.cache_hierarchy.ruby_system.delayVCHist.vnet_0::mean     3.242082                       # delay histogram for vnet_0 (Unspecified)
board.cache_hierarchy.ruby_system.delayVCHist.vnet_0::stdev    19.902673                       # delay histogram for vnet_0 (Unspecified)
board.cache_hierarchy.ruby_system.delayVCHist.vnet_0 |       44746     99.95%     99.95% |          11      0.02%     99.97% |           4      0.01%     99.98% |           4      0.01%     99.99% |           3      0.01%    100.00% |           2      0.00%    100.00% |           0      0.00%    100.00% |           0      0.00%    100.00% |           0      0.00%    100.00% |           0      0.00%    100.00% # delay histogram for vnet_0 (Unspecified)
board.cache_hierarchy.ruby_system.delayVCHist.vnet_0::total        44770                       # delay histogram for vnet_0 (Unspecified)
board.cache_hierarchy.ruby_system.delayVCHist.vnet_1::bucket_size            8                       # delay histogram for vnet_1 (Unspecified)
board.cache_hierarchy.ruby_system.delayVCHist.vnet_1::max_bucket           79                       # delay histogram for vnet_1 (Unspecified)
board.cache_hierarchy.ruby_system.delayVCHist.vnet_1::samples        42906                       # delay histogram for vnet_1 (Unspecified)
board.cache_hierarchy.ruby_system.delayVCHist.vnet_1::mean     1.608213                       # delay histogram for vnet_1 (Unspecified)
board.cache_hierarchy.ruby_system.delayVCHist.vnet_1::stdev     5.242592                       # delay histogram for vnet_1 (Unspecified)
board.cache_hierarchy.ruby_system.delayVCHist.vnet_1 |       38051     88.68%     88.68% |        3283      7.65%     96.34% |         797      1.86%     98.19% |         439      1.02%     99.22% |         255      0.59%     99.81% |          72      0.17%     99.98% |           9      0.02%    100.00% |           0      0.00%    100.00% |           0      0.00%    100.00% |           0      0.00%    100.00% # delay histogram for vnet_1 (Unspecified)
board.cache_hierarchy.ruby_system.delayVCHist.vnet_1::total        42906                       # delay histogram for vnet_1 (Unspecified)
board.cache_hierarchy.ruby_system.delayVCHist.vnet_2::bucket_size            1                       # delay histogram for vnet_2 (Unspecified)
board.cache_hierarchy.ruby_system.delayVCHist.vnet_2::max_bucket            9                       # delay histogram for vnet_2 (Unspecified)
board.cache_hierarchy.ruby_system.delayVCHist.vnet_2::samples         2906                       # delay histogram for vnet_2 (Unspecified)
board.cache_hierarchy.ruby_system.delayVCHist.vnet_2::mean     0.000688                       # delay histogram for vnet_2 (Unspecified)
board.cache_hierarchy.ruby_system.delayVCHist.vnet_2::stdev     0.037101                       # delay histogram for vnet_2 (Unspecified)
board.cache_hierarchy.ruby_system.delayVCHist.vnet_2 |        2905     99.97%     99.97% |           0      0.00%     99.97% |           1      0.03%    100.00% |           0      0.00%    100.00% |           0      0.00%    100.00% |           0      0.00%    100.00% |           0      0.00%    100.00% |           0      0.00%    100.00% |           0      0.00%    100.00% |           0      0.00%    100.00% # delay histogram for vnet_2 (Unspecified)
board.cache_hierarchy.ruby_system.delayVCHist.vnet_2::total         2906                       # delay histogram for vnet_2 (Unspecified)
board.cache_hierarchy.ruby_system.Directory_Controller.Fetch         1331      0.00%      0.00% (Unspecified)
board.cache_hierarchy.ruby_system.Directory_Controller.Memory_Data         1331      0.00%      0.00% (Unspecified)
board.cache_hierarchy.ruby_system.Directory_Controller.I.Fetch         1331      0.00%      0.00% (Unspecified)
board.cache_hierarchy.ruby_system.Directory_Controller.IM.Memory_Data         1331      0.00%      0.00% (Unspecified)
board.cache_hierarchy.ruby_system.L1Cache_Controller.Load |       13372      4.71%      4.71% |       16932      5.96%     10.67% |       16909      5.96%     16.63% |       16907      5.95%     22.58% |       16926      5.96%     28.55% |       16928      5.96%     34.51% |       16908      5.96%     40.46% |       16912      5.96%     46.42% |       16918      5.96%     52.38% |       16922      5.96%     58.34% |       16901      5.95%     64.29% |       16909      5.96%     70.25% |       16898      5.95%     76.20% |       16895      5.95%     82.15% |       16904      5.95%     88.10% |       16892      5.95%     94.05% |       16886      5.95%    100.00% (Unspecified)
board.cache_hierarchy.ruby_system.L1Cache_Controller.Load::total       283919                       (Unspecified)
board.cache_hierarchy.ruby_system.L1Cache_Controller.Ifetch |       20703      3.70%      3.70% |       33551      6.00%      9.70% |       33560      6.00%     15.71% |       33804      6.05%     21.75% |       33866      6.06%     27.81% |       33784      6.04%     33.85% |       33707      6.03%     39.88% |       33702      6.03%     45.91% |       33767      6.04%     51.95% |       33707      6.03%     57.98% |       33570      6.00%     63.99% |       33577      6.01%     69.99% |       33546      6.00%     75.99% |       33552      6.00%     81.99% |       33552      6.00%     87.99% |       33563      6.00%     94.00% |       33554      6.00%    100.00% (Unspecified)
board.cache_hierarchy.ruby_system.L1Cache_Controller.Ifetch::total       559065                       (Unspecified)
board.cache_hierarchy.ruby_system.L1Cache_Controller.Store |       22795      8.70%      8.70% |       15089      5.76%     14.47% |       14793      5.65%     20.11% |       15101      5.77%     25.88% |       15103      5.77%     31.65% |       15096      5.76%     37.41% |       15095      5.76%     43.17% |       15093      5.76%     48.94% |       15099      5.77%     54.70% |       15086      5.76%     60.46% |       14793      5.65%     66.11% |       14793      5.65%     71.76% |       14793      5.65%     77.41% |       14793      5.65%     83.06% |       14793      5.65%     88.70% |       14793      5.65%     94.35% |       14793      5.65%    100.00% (Unspecified)
board.cache_hierarchy.ruby_system.L1Cache_Controller.Store::total       261901                       (Unspecified)
board.cache_hierarchy.ruby_system.L1Cache_Controller.Inv |          81     26.21%     26.21% |          10      3.24%     29.45% |          14      4.53%     33.98% |          23      7.44%     41.42% |          17      5.50%     46.93% |          20      6.47%     53.40% |          13      4.21%     57.61% |          13      4.21%     61.81% |          20      6.47%     68.28% |          18      5.83%     74.11% |          20      6.47%     80.58% |          15      4.85%     85.44% |          12      3.88%     89.32% |          11      3.56%     92.88% |          12      3.88%     96.76% |           9      2.91%     99.68% |           1      0.32%    100.00% (Unspecified)
board.cache_hierarchy.ruby_system.L1Cache_Controller.Inv::total          309                       (Unspecified)
board.cache_hierarchy.ruby_system.L1Cache_Controller.L1_Replacement |         860      3.20%      3.20% |        1638      6.10%      9.30% |        1611      6.00%     15.29% |        1639      6.10%     21.39% |        1640      6.10%     27.50% |        1642      6.11%     33.61% |        1639      6.10%     39.71% |        1642      6.11%     45.82% |        1640      6.10%     51.92% |        1640      6.10%     58.03% |        1608      5.98%     64.01% |        1613      6.00%     70.02% |        1609      5.99%     76.00% |        1612      6.00%     82.00% |        1612      6.00%     88.00% |        1612      6.00%     94.00% |        1611      6.00%    100.00% (Unspecified)
board.cache_hierarchy.ruby_system.L1Cache_Controller.L1_Replacement::total        26868                       (Unspecified)
board.cache_hierarchy.ruby_system.L1Cache_Controller.Fwd_GETX |          42     22.34%     22.34% |          13      6.91%     29.26% |          15      7.98%     37.23% |           5      2.66%     39.89% |           7      3.72%     43.62% |           5      2.66%     46.28% |           5      2.66%     48.94% |           5      2.66%     51.60% |           5      2.66%     54.26% |           2      1.06%     55.32% |          15      7.98%     63.30% |          13      6.91%     70.21% |          13      6.91%     77.13% |          14      7.45%     84.57% |          13      6.91%     91.49% |          14      7.45%     98.94% |           2      1.06%    100.00% (Unspecified)
board.cache_hierarchy.ruby_system.L1Cache_Controller.Fwd_GETX::total          188                       (Unspecified)
board.cache_hierarchy.ruby_system.L1Cache_Controller.Fwd_GETS |         406     16.85%     16.85% |        1777     73.77%     90.62% |          51      2.12%     92.74% |          16      0.66%     93.40% |          13      0.54%     93.94% |          12      0.50%     94.44% |          11      0.46%     94.89% |          10      0.42%     95.31% |          13      0.54%     95.85% |          12      0.50%     96.35% |          13      0.54%     96.89% |          16      0.66%     97.55% |          13      0.54%     98.09% |          13      0.54%     98.63% |          14      0.58%     99.21% |          13      0.54%     99.75% |           6      0.25%    100.00% (Unspecified)
board.cache_hierarchy.ruby_system.L1Cache_Controller.Fwd_GETS::total         2409                       (Unspecified)
board.cache_hierarchy.ruby_system.L1Cache_Controller.Data |           2      7.14%      7.14% |           0      0.00%      7.14% |           1      3.57%     10.71% |           5     17.86%     28.57% |           6     21.43%     50.00% |           2      7.14%     57.14% |           2      7.14%     64.29% |           3     10.71%     75.00% |           3     10.71%     85.71% |           2      7.14%     92.86% |           2      7.14%    100.00% |           0      0.00%    100.00% |           0      0.00%    100.00% |           0      0.00%    100.00% |           0      0.00%    100.00% |           0      0.00%    100.00% |           0      0.00%    100.00% (Unspecified)
board.cache_hierarchy.ruby_system.L1Cache_Controller.Data::total           28                       (Unspecified)
board.cache_hierarchy.ruby_system.L1Cache_Controller.Data_Exclusive |          56      2.63%      2.63% |        1815     85.37%     88.01% |          53      2.49%     90.50% |          14      0.66%     91.16% |          14      0.66%     91.82% |          14      0.66%     92.47% |          15      0.71%     93.18% |          15      0.71%     93.89% |          13      0.61%     94.50% |          13      0.61%     95.11% |          15      0.71%     95.81% |          15      0.71%     96.52% |          14      0.66%     97.18% |          14      0.66%     97.84% |          17      0.80%     98.64% |          15      0.71%     99.34% |          14      0.66%    100.00% (Unspecified)
board.cache_hierarchy.ruby_system.L1Cache_Controller.Data_Exclusive::total         2126                       (Unspecified)
board.cache_hierarchy.ruby_system.L1Cache_Controller.DataS_fromL1 |          68      2.82%      2.82% |         271     11.25%     14.07% |        1783     74.01%     88.09% |          15      0.62%     88.71% |          18      0.75%     89.46% |          26      1.08%     90.54% |          29      1.20%     91.74% |          25      1.04%     92.78% |          25      1.04%     93.81% |          18      0.75%     94.56% |          20      0.83%     95.39% |          20      0.83%     96.22% |          17      0.71%     96.93% |          20      0.83%     97.76% |          17      0.71%     98.46% |          19      0.79%     99.25% |          18      0.75%    100.00% (Unspecified)
board.cache_hierarchy.ruby_system.L1Cache_Controller.DataS_fromL1::total         2409                       (Unspecified)
board.cache_hierarchy.ruby_system.L1Cache_Controller.Data_all_Acks |         769      2.30%      2.30% |         246      0.74%      3.03% |         456      1.36%      4.40% |        2328      6.96%     11.35% |        2319      6.93%     18.28% |        2323      6.94%     25.22% |        2308      6.90%     32.12% |        2313      6.91%     39.03% |        2323      6.94%     45.97% |        2317      6.92%     52.90% |        2254      6.74%     59.63% |        2257      6.74%     66.38% |        2249      6.72%     73.10% |        2251      6.73%     79.82% |        2252      6.73%     86.55% |        2250      6.72%     93.28% |        2250      6.72%    100.00% (Unspecified)
board.cache_hierarchy.ruby_system.L1Cache_Controller.Data_all_Acks::total        33465                       (Unspecified)
board.cache_hierarchy.ruby_system.L1Cache_Controller.Ack |          40     14.23%     14.23% |           9      3.20%     17.44% |          18      6.41%     23.84% |          17      6.05%     29.89% |          20      7.12%     37.01% |          14      4.98%     41.99% |          19      6.76%     48.75% |          21      7.47%     56.23% |          16      5.69%     61.92% |          11      3.91%     65.84% |          13      4.63%     70.46% |          17      6.05%     76.51% |          14      4.98%     81.49% |          13      4.63%     86.12% |          11      3.91%     90.04% |          13      4.63%     94.66% |          15      5.34%    100.00% (Unspecified)
board.cache_hierarchy.ruby_system.L1Cache_Controller.Ack::total          281                       (Unspecified)
board.cache_hierarchy.ruby_system.L1Cache_Controller.Ack_all |          35     14.96%     14.96% |           9      3.85%     18.80% |          14      5.98%     24.79% |          15      6.41%     31.20% |          16      6.84%     38.03% |          11      4.70%     42.74% |          11      4.70%     47.44% |          12      5.13%     52.56% |          12      5.13%     57.69% |          10      4.27%     61.97% |          12      5.13%     67.09% |          14      5.98%     73.08% |          13      5.56%     78.63% |          12      5.13%     83.76% |          11      4.70%     88.46% |          13      5.56%     94.02% |          14      5.98%    100.00% (Unspecified)
board.cache_hierarchy.ruby_system.L1Cache_Controller.Ack_all::total          234                       (Unspecified)
board.cache_hierarchy.ruby_system.L1Cache_Controller.WB_Ack |         363     58.27%     58.27% |          52      8.35%     66.61% |          14      2.25%     68.86% |          14      2.25%     71.11% |          14      2.25%     73.35% |          14      2.25%     75.60% |          14      2.25%     77.85% |          14      2.25%     80.10% |          13      2.09%     82.18% |          13      2.09%     84.27% |          14      2.25%     86.52% |          14      2.25%     88.76% |          14      2.25%     91.01% |          14      2.25%     93.26% |          14      2.25%     95.51% |          14      2.25%     97.75% |          14      2.25%    100.00% (Unspecified)
board.cache_hierarchy.ruby_system.L1Cache_Controller.WB_Ack::total          623                       (Unspecified)
board.cache_hierarchy.ruby_system.L1Cache_Controller.NP.Load |         126      0.37%      0.37% |        2088      6.21%      6.59% |        2094      6.23%     12.82% |        2089      6.22%     19.04% |        2090      6.22%     25.26% |        2091      6.22%     31.48% |        2089      6.22%     37.69% |        2092      6.23%     43.92% |        2090      6.22%     50.14% |        2089      6.22%     56.35% |        2093      6.23%     62.58% |        2095      6.23%     68.82% |        2093      6.23%     75.05% |        2096      6.24%     81.28% |        2098      6.24%     87.53% |        2097      6.24%     93.77% |        2095      6.23%    100.00% (Unspecified)
board.cache_hierarchy.ruby_system.L1Cache_Controller.NP.Load::total        33605                       (Unspecified)
board.cache_hierarchy.ruby_system.L1Cache_Controller.NP.Ifetch |         339     10.80%     10.80% |         182      5.80%     16.60% |         164      5.22%     21.82% |         190      6.05%     27.88% |         187      5.96%     33.83% |         195      6.21%     40.04% |         191      6.08%     46.13% |         192      6.12%     52.25% |         195      6.21%     58.46% |         188      5.99%     64.45% |         160      5.10%     69.54% |         164      5.22%     74.77% |         158      5.03%     79.80% |         159      5.07%     84.87% |         159      5.07%     89.93% |         158      5.03%     94.97% |         158      5.03%    100.00% (Unspecified)
board.cache_hierarchy.ruby_system.L1Cache_Controller.NP.Ifetch::total         3139                       (Unspecified)
board.cache_hierarchy.ruby_system.L1Cache_Controller.NP.Store |         395     35.55%     35.55% |          62      5.58%     41.13% |          28      2.52%     43.65% |          62      5.58%     49.23% |          62      5.58%     54.82% |          62      5.58%     60.40% |          62      5.58%     65.98% |          61      5.49%     71.47% |          62      5.58%     77.05% |          62      5.58%     82.63% |          27      2.43%     85.06% |          29      2.61%     87.67% |          28      2.52%     90.19% |          28      2.52%     92.71% |          26      2.34%     95.05% |          27      2.43%     97.48% |          28      2.52%    100.00% (Unspecified)
board.cache_hierarchy.ruby_system.L1Cache_Controller.NP.Store::total         1111                       (Unspecified)
board.cache_hierarchy.ruby_system.L1Cache_Controller.NP.Inv |          10    100.00%    100.00% |           0      0.00%    100.00% |           0      0.00%    100.00% |           0      0.00%    100.00% |           0      0.00%    100.00% |           0      0.00%    100.00% |           0      0.00%    100.00% |           0      0.00%    100.00% |           0      0.00%    100.00% |           0      0.00%    100.00% |           0      0.00%    100.00% |           0      0.00%    100.00% |           0      0.00%    100.00% |           0      0.00%    100.00% |           0      0.00%    100.00% |           0      0.00%    100.00% |           0      0.00%    100.00% (Unspecified)
board.cache_hierarchy.ruby_system.L1Cache_Controller.NP.Inv::total           10                       (Unspecified)
board.cache_hierarchy.ruby_system.L1Cache_Controller.I.Load |          29     26.13%     26.13% |           0      0.00%     26.13% |           5      4.50%     30.63% |          12     10.81%     41.44% |          10      9.01%     50.45% |          11      9.91%     60.36% |           8      7.21%     67.57% |           7      6.31%     73.87% |          10      9.01%     82.88% |           7      6.31%     89.19% |           6      5.41%     94.59% |           3      2.70%     97.30% |           1      0.90%     98.20% |           0      0.00%     98.20% |           0      0.00%     98.20% |           1      0.90%     99.10% |           1      0.90%    100.00% (Unspecified)
board.cache_hierarchy.ruby_system.L1Cache_Controller.I.Load::total          111                       (Unspecified)
board.cache_hierarchy.ruby_system.L1Cache_Controller.I.Store |           5      9.80%      9.80% |           0      0.00%      9.80% |           1      1.96%     11.76% |           8     15.69%     27.45% |           6     11.76%     39.22% |           6     11.76%     50.98% |           3      5.88%     56.86% |           4      7.84%     64.71% |           6     11.76%     76.47% |           3      5.88%     82.35% |           3      5.88%     88.24% |           1      1.96%     90.20% |           0      0.00%     90.20% |           2      3.92%     94.12% |           2      3.92%     98.04% |           1      1.96%    100.00% |           0      0.00%    100.00% (Unspecified)
board.cache_hierarchy.ruby_system.L1Cache_Controller.I.Store::total           51                       (Unspecified)
board.cache_hierarchy.ruby_system.L1Cache_Controller.I.L1_Replacement |          57     96.61%     96.61% |           0      0.00%     96.61% |           0      0.00%     96.61% |           0      0.00%     96.61% |           0      0.00%     96.61% |           1      1.69%     98.31% |           0      0.00%     98.31% |           0      0.00%     98.31% |           0      0.00%     98.31% |           1      1.69%    100.00% |           0      0.00%    100.00% |           0      0.00%    100.00% |           0      0.00%    100.00% |           0      0.00%    100.00% |           0      0.00%    100.00% |           0      0.00%    100.00% |           0      0.00%    100.00% (Unspecified)
board.cache_hierarchy.ruby_system.L1Cache_Controller.I.L1_Replacement::total           59                       (Unspecified)
board.cache_hierarchy.ruby_system.L1Cache_Controller.S.Load |         482     29.14%     29.14% |          62      3.75%     32.89% |          90      5.44%     38.33% |          68      4.11%     42.44% |          74      4.47%     46.92% |          65      3.93%     50.85% |          65      3.93%     54.78% |          63      3.81%     58.59% |          71      4.29%     62.88% |          70      4.23%     67.11% |          76      4.59%     71.70% |          85      5.14%     76.84% |          88      5.32%     82.16% |          78      4.72%     86.88% |          81      4.90%     91.78% |          74      4.47%     96.25% |          62      3.75%    100.00% (Unspecified)
board.cache_hierarchy.ruby_system.L1Cache_Controller.S.Load::total         1654                       (Unspecified)
board.cache_hierarchy.ruby_system.L1Cache_Controller.S.Ifetch |       20364      3.66%      3.66% |       33369      6.00%      9.67% |       33396      6.01%     15.67% |       33614      6.05%     21.72% |       33679      6.06%     27.78% |       33589      6.04%     33.82% |       33516      6.03%     39.85% |       33510      6.03%     45.88% |       33572      6.04%     51.92% |       33519      6.03%     57.94% |       33410      6.01%     63.95% |       33413      6.01%     69.96% |       33388      6.01%     75.97% |       33393      6.01%     81.98% |       33393      6.01%     87.98% |       33405      6.01%     93.99% |       33396      6.01%    100.00% (Unspecified)
board.cache_hierarchy.ruby_system.L1Cache_Controller.S.Ifetch::total       555926                       (Unspecified)
board.cache_hierarchy.ruby_system.L1Cache_Controller.S.Store |          33     15.28%     15.28% |           9      4.17%     19.44% |          14      6.48%     25.93% |          11      5.09%     31.02% |          12      5.56%     36.57% |           9      4.17%     40.74% |          10      4.63%     45.37% |           9      4.17%     49.54% |          10      4.63%     54.17% |           9      4.17%     58.33% |          12      5.56%     63.89% |          14      6.48%     70.37% |          13      6.02%     76.39% |          12      5.56%     81.94% |          12      5.56%     87.50% |          13      6.02%     93.52% |          14      6.48%    100.00% (Unspecified)
board.cache_hierarchy.ruby_system.L1Cache_Controller.S.Store::total          216                       (Unspecified)
board.cache_hierarchy.ruby_system.L1Cache_Controller.S.Inv |          71     24.91%     24.91% |          10      3.51%     28.42% |          13      4.56%     32.98% |          20      7.02%     40.00% |          15      5.26%     45.26% |          19      6.67%     51.93% |          12      4.21%     56.14% |          13      4.56%     60.70% |          19      6.67%     67.37% |          17      5.96%     73.33% |          17      5.96%     79.30% |          15      5.26%     84.56% |          12      4.21%     88.77% |          11      3.86%     92.63% |          11      3.86%     96.49% |           9      3.16%     99.65% |           1      0.35%    100.00% (Unspecified)
board.cache_hierarchy.ruby_system.L1Cache_Controller.S.Inv::total          285                       (Unspecified)
board.cache_hierarchy.ruby_system.L1Cache_Controller.S.L1_Replacement |         440      1.68%      1.68% |        1586      6.06%      7.74% |        1597      6.10%     13.84% |        1625      6.21%     20.04% |        1626      6.21%     26.25% |        1627      6.21%     32.46% |        1625      6.21%     38.67% |        1628      6.22%     44.89% |        1627      6.21%     51.10% |        1626      6.21%     57.31% |        1594      6.09%     63.40% |        1599      6.11%     69.50% |        1595      6.09%     75.59% |        1598      6.10%     81.70% |        1598      6.10%     87.80% |        1598      6.10%     93.90% |        1597      6.10%    100.00% (Unspecified)
board.cache_hierarchy.ruby_system.L1Cache_Controller.S.L1_Replacement::total        26186                       (Unspecified)
board.cache_hierarchy.ruby_system.L1Cache_Controller.E.Load |        1371     90.55%     90.55% |          12      0.79%     91.35% |           8      0.53%     91.88% |           9      0.59%     92.47% |          10      0.66%     93.13% |           9      0.59%     93.73% |          13      0.86%     94.58% |           9      0.59%     95.18% |          10      0.66%     95.84% |           5      0.33%     96.17% |           9      0.59%     96.76% |           8      0.53%     97.29% |           9      0.59%     97.89% |           8      0.53%     98.41% |           8      0.53%     98.94% |           8      0.53%     99.47% |           8      0.53%    100.00% (Unspecified)
board.cache_hierarchy.ruby_system.L1Cache_Controller.E.Load::total         1514                       (Unspecified)
board.cache_hierarchy.ruby_system.L1Cache_Controller.E.Store |          18     11.39%     11.39% |           8      5.06%     16.46% |           9      5.70%     22.15% |           8      5.06%     27.22% |           9      5.70%     32.91% |           9      5.70%     38.61% |           9      5.70%     44.30% |          10      6.33%     50.63% |           8      5.06%     55.70% |           8      5.06%     60.76% |          10      6.33%     67.09% |           8      5.06%     72.15% |           9      5.70%     77.85% |           8      5.06%     82.91% |          10      6.33%     89.24% |           9      5.70%     94.94% |           8      5.06%    100.00% (Unspecified)
board.cache_hierarchy.ruby_system.L1Cache_Controller.E.Store::total          158                       (Unspecified)
board.cache_hierarchy.ruby_system.L1Cache_Controller.E.L1_Replacement |          12     18.18%     18.18% |          39     59.09%     77.27% |           1      1.52%     78.79% |           1      1.52%     80.30% |           1      1.52%     81.82% |           1      1.52%     83.33% |           1      1.52%     84.85% |           1      1.52%     86.36% |           1      1.52%     87.88% |           1      1.52%     89.39% |           1      1.52%     90.91% |           1      1.52%     92.42% |           1      1.52%     93.94% |           1      1.52%     95.45% |           1      1.52%     96.97% |           1      1.52%     98.48% |           1      1.52%    100.00% (Unspecified)
board.cache_hierarchy.ruby_system.L1Cache_Controller.E.L1_Replacement::total           66                       (Unspecified)
board.cache_hierarchy.ruby_system.L1Cache_Controller.E.Fwd_GETS |           8      0.44%      0.44% |        1765     96.29%     96.73% |          39      2.13%     98.85% |           2      0.11%     98.96% |           1      0.05%     99.02% |           1      0.05%     99.07% |           2      0.11%     99.18% |           1      0.05%     99.24% |           1      0.05%     99.29% |           1      0.05%     99.35% |           1      0.05%     99.40% |           2      0.11%     99.51% |           1      0.05%     99.56% |           2      0.11%     99.67% |           2      0.11%     99.78% |           2      0.11%     99.89% |           2      0.11%    100.00% (Unspecified)
board.cache_hierarchy.ruby_system.L1Cache_Controller.E.Fwd_GETS::total         1833                       (Unspecified)
board.cache_hierarchy.ruby_system.L1Cache_Controller.M.Load |       11364      4.60%      4.60% |       14770      5.98%     10.58% |       14712      5.96%     16.53% |       14729      5.96%     22.50% |       14742      5.97%     28.46% |       14752      5.97%     34.44% |       14733      5.96%     40.40% |       14741      5.97%     46.37% |       14737      5.97%     52.33% |       14751      5.97%     58.30% |       14717      5.96%     64.26% |       14718      5.96%     70.22% |       14707      5.95%     76.17% |       14713      5.96%     82.13% |       14717      5.96%     88.09% |       14712      5.96%     94.04% |       14720      5.96%    100.00% (Unspecified)
board.cache_hierarchy.ruby_system.L1Cache_Controller.M.Load::total       247035                       (Unspecified)
board.cache_hierarchy.ruby_system.L1Cache_Controller.M.Store |       22344      8.58%      8.58% |       15010      5.76%     14.35% |       14741      5.66%     20.01% |       15012      5.77%     25.77% |       15014      5.77%     31.54% |       15010      5.76%     37.31% |       15011      5.77%     43.07% |       15009      5.76%     48.84% |       15013      5.77%     54.60% |       15004      5.76%     60.36% |       14741      5.66%     66.03% |       14741      5.66%     71.69% |       14743      5.66%     77.35% |       14743      5.66%     83.01% |       14743      5.66%     88.68% |       14743      5.66%     94.34% |       14743      5.66%    100.00% (Unspecified)
board.cache_hierarchy.ruby_system.L1Cache_Controller.M.Store::total       260365                       (Unspecified)
board.cache_hierarchy.ruby_system.L1Cache_Controller.M.L1_Replacement |         351     63.02%     63.02% |          13      2.33%     65.35% |          13      2.33%     67.68% |          13      2.33%     70.02% |          13      2.33%     72.35% |          13      2.33%     74.69% |          13      2.33%     77.02% |          13      2.33%     79.35% |          12      2.15%     81.51% |          12      2.15%     83.66% |          13      2.33%     86.00% |          13      2.33%     88.33% |          13      2.33%     90.66% |          13      2.33%     93.00% |          13      2.33%     95.33% |          13      2.33%     97.67% |          13      2.33%    100.00% (Unspecified)
board.cache_hierarchy.ruby_system.L1Cache_Controller.M.L1_Replacement::total          557                       (Unspecified)
board.cache_hierarchy.ruby_system.L1Cache_Controller.M.Fwd_GETX |          42     22.34%     22.34% |          13      6.91%     29.26% |          15      7.98%     37.23% |           5      2.66%     39.89% |           7      3.72%     43.62% |           5      2.66%     46.28% |           5      2.66%     48.94% |           5      2.66%     51.60% |           5      2.66%     54.26% |           2      1.06%     55.32% |          15      7.98%     63.30% |          13      6.91%     70.21% |          13      6.91%     77.13% |          14      7.45%     84.57% |          13      6.91%     91.49% |          14      7.45%     98.94% |           2      1.06%    100.00% (Unspecified)
board.cache_hierarchy.ruby_system.L1Cache_Controller.M.Fwd_GETX::total          188                       (Unspecified)
board.cache_hierarchy.ruby_system.L1Cache_Controller.M.Fwd_GETS |         398     69.10%     69.10% |          12      2.08%     71.18% |          12      2.08%     73.26% |          14      2.43%     75.69% |          12      2.08%     77.78% |          11      1.91%     79.69% |           9      1.56%     81.25% |           9      1.56%     82.81% |          12      2.08%     84.90% |          11      1.91%     86.81% |          12      2.08%     88.89% |          14      2.43%     91.32% |          12      2.08%     93.40% |          11      1.91%     95.31% |          12      2.08%     97.40% |          11      1.91%     99.31% |           4      0.69%    100.00% (Unspecified)
board.cache_hierarchy.ruby_system.L1Cache_Controller.M.Fwd_GETS::total          576                       (Unspecified)
board.cache_hierarchy.ruby_system.L1Cache_Controller.IS.Inv |           0      0.00%      0.00% |           0      0.00%      0.00% |           0      0.00%      0.00% |           2     50.00%     50.00% |           0      0.00%     50.00% |           1     25.00%     75.00% |           0      0.00%     75.00% |           0      0.00%     75.00% |           0      0.00%     75.00% |           0      0.00%     75.00% |           1     25.00%    100.00% |           0      0.00%    100.00% |           0      0.00%    100.00% |           0      0.00%    100.00% |           0      0.00%    100.00% |           0      0.00%    100.00% |           0      0.00%    100.00% (Unspecified)
board.cache_hierarchy.ruby_system.L1Cache_Controller.IS.Inv::total            4                       (Unspecified)
board.cache_hierarchy.ruby_system.L1Cache_Controller.IS.Data_Exclusive |          56      2.63%      2.63% |        1815     85.37%     88.01% |          53      2.49%     90.50% |          14      0.66%     91.16% |          14      0.66%     91.82% |          14      0.66%     92.47% |          15      0.71%     93.18% |          15      0.71%     93.89% |          13      0.61%     94.50% |          13      0.61%     95.11% |          15      0.71%     95.81% |          15      0.71%     96.52% |          14      0.66%     97.18% |          14      0.66%     97.84% |          17      0.80%     98.64% |          15      0.71%     99.34% |          14      0.66%    100.00% (Unspecified)
board.cache_hierarchy.ruby_system.L1Cache_Controller.IS.Data_Exclusive::total         2126                       (Unspecified)
board.cache_hierarchy.ruby_system.L1Cache_Controller.IS.DataS_fromL1 |          68      2.82%      2.82% |         271     11.25%     14.07% |        1783     74.01%     88.09% |          15      0.62%     88.71% |          18      0.75%     89.46% |          26      1.08%     90.54% |          29      1.20%     91.74% |          25      1.04%     92.78% |          25      1.04%     93.81% |          18      0.75%     94.56% |          20      0.83%     95.39% |          20      0.83%     96.22% |          17      0.71%     96.93% |          20      0.83%     97.76% |          17      0.71%     98.46% |          19      0.79%     99.25% |          18      0.75%    100.00% (Unspecified)
board.cache_hierarchy.ruby_system.L1Cache_Controller.IS.DataS_fromL1::total         2409                       (Unspecified)
board.cache_hierarchy.ruby_system.L1Cache_Controller.IS.Data_all_Acks |         371      1.15%      1.15% |         184      0.57%      1.72% |         427      1.32%      3.04% |        2260      6.99%     10.03% |        2255      6.98%     17.01% |        2256      6.98%     23.99% |        2244      6.94%     30.93% |        2251      6.97%     37.90% |        2257      6.98%     44.88% |        2253      6.97%     51.86% |        2223      6.88%     58.73% |        2227      6.89%     65.62% |        2221      6.87%     72.50% |        2221      6.87%     79.37% |        2223      6.88%     86.25% |        2222      6.88%     93.12% |        2222      6.88%    100.00% (Unspecified)
board.cache_hierarchy.ruby_system.L1Cache_Controller.IS.Data_all_Acks::total        32317                       (Unspecified)
board.cache_hierarchy.ruby_system.L1Cache_Controller.IM.Data |           2      7.14%      7.14% |           0      0.00%      7.14% |           1      3.57%     10.71% |           5     17.86%     28.57% |           6     21.43%     50.00% |           2      7.14%     57.14% |           2      7.14%     64.29% |           3     10.71%     75.00% |           3     10.71%     85.71% |           2      7.14%     92.86% |           2      7.14%    100.00% |           0      0.00%    100.00% |           0      0.00%    100.00% |           0      0.00%    100.00% |           0      0.00%    100.00% |           0      0.00%    100.00% |           0      0.00%    100.00% (Unspecified)
board.cache_hierarchy.ruby_system.L1Cache_Controller.IM.Data::total           28                       (Unspecified)
board.cache_hierarchy.ruby_system.L1Cache_Controller.IM.Data_all_Acks |         398     34.79%     34.79% |          62      5.42%     40.21% |          29      2.53%     42.74% |          66      5.77%     48.51% |          64      5.59%     54.11% |          66      5.77%     59.88% |          64      5.59%     65.47% |          62      5.42%     70.89% |          66      5.77%     76.66% |          64      5.59%     82.26% |          30      2.62%     84.88% |          30      2.62%     87.50% |          28      2.45%     89.95% |          30      2.62%     92.57% |          29      2.53%     95.10% |          28      2.45%     97.55% |          28      2.45%    100.00% (Unspecified)
board.cache_hierarchy.ruby_system.L1Cache_Controller.IM.Data_all_Acks::total         1144                       (Unspecified)
board.cache_hierarchy.ruby_system.L1Cache_Controller.SM.Inv |           0      0.00%      0.00% |           0      0.00%      0.00% |           1     10.00%     10.00% |           1     10.00%     20.00% |           2     20.00%     40.00% |           0      0.00%     40.00% |           1     10.00%     50.00% |           0      0.00%     50.00% |           1     10.00%     60.00% |           1     10.00%     70.00% |           2     20.00%     90.00% |           0      0.00%     90.00% |           0      0.00%     90.00% |           0      0.00%     90.00% |           1     10.00%    100.00% |           0      0.00%    100.00% |           0      0.00%    100.00% (Unspecified)
board.cache_hierarchy.ruby_system.L1Cache_Controller.SM.Inv::total           10                       (Unspecified)
board.cache_hierarchy.ruby_system.L1Cache_Controller.SM.Ack |          40     14.23%     14.23% |           9      3.20%     17.44% |          18      6.41%     23.84% |          17      6.05%     29.89% |          20      7.12%     37.01% |          14      4.98%     41.99% |          19      6.76%     48.75% |          21      7.47%     56.23% |          16      5.69%     61.92% |          11      3.91%     65.84% |          13      4.63%     70.46% |          17      6.05%     76.51% |          14      4.98%     81.49% |          13      4.63%     86.12% |          11      3.91%     90.04% |          13      4.63%     94.66% |          15      5.34%    100.00% (Unspecified)
board.cache_hierarchy.ruby_system.L1Cache_Controller.SM.Ack::total          281                       (Unspecified)
board.cache_hierarchy.ruby_system.L1Cache_Controller.SM.Ack_all |          35     14.96%     14.96% |           9      3.85%     18.80% |          14      5.98%     24.79% |          15      6.41%     31.20% |          16      6.84%     38.03% |          11      4.70%     42.74% |          11      4.70%     47.44% |          12      5.13%     52.56% |          12      5.13%     57.69% |          10      4.27%     61.97% |          12      5.13%     67.09% |          14      5.98%     73.08% |          13      5.56%     78.63% |          12      5.13%     83.76% |          11      4.70%     88.46% |          13      5.56%     94.02% |          14      5.98%    100.00% (Unspecified)
board.cache_hierarchy.ruby_system.L1Cache_Controller.SM.Ack_all::total          234                       (Unspecified)
board.cache_hierarchy.ruby_system.L1Cache_Controller.IS_I.Data_all_Acks |           0      0.00%      0.00% |           0      0.00%      0.00% |           0      0.00%      0.00% |           2     50.00%     50.00% |           0      0.00%     50.00% |           1     25.00%     75.00% |           0      0.00%     75.00% |           0      0.00%     75.00% |           0      0.00%     75.00% |           0      0.00%     75.00% |           1     25.00%    100.00% |           0      0.00%    100.00% |           0      0.00%    100.00% |           0      0.00%    100.00% |           0      0.00%    100.00% |           0      0.00%    100.00% |           0      0.00%    100.00% (Unspecified)
board.cache_hierarchy.ruby_system.L1Cache_Controller.IS_I.Data_all_Acks::total            4                       (Unspecified)
board.cache_hierarchy.ruby_system.L1Cache_Controller.M_I.WB_Ack |         363     58.27%     58.27% |          52      8.35%     66.61% |          14      2.25%     68.86% |          14      2.25%     71.11% |          14      2.25%     73.35% |          14      2.25%     75.60% |          14      2.25%     77.85% |          14      2.25%     80.10% |          13      2.09%     82.18% |          13      2.09%     84.27% |          14      2.25%     86.52% |          14      2.25%     88.76% |          14      2.25%     91.01% |          14      2.25%     93.26% |          14      2.25%     95.51% |          14      2.25%     97.75% |          14      2.25%    100.00% (Unspecified)
board.cache_hierarchy.ruby_system.L1Cache_Controller.M_I.WB_Ack::total          623                       (Unspecified)
board.cache_hierarchy.ruby_system.L2Cache_Controller.L1_GET_INSTR |         165      5.25%      5.25% |         197      6.27%     11.53% |         232      7.39%     18.92% |         261      8.31%     27.23% |         223      7.10%     34.33% |         178      5.67%     40.00% |         209      6.66%     46.66% |         165      5.25%     51.91% |         214      6.82%     58.73% |         208      6.62%     65.35% |         206      6.56%     71.91% |         197      6.27%     78.18% |         206      6.56%     84.75% |         189      6.02%     90.76% |         156      4.97%     95.73% |         134      4.27%    100.00% (Unspecified)
board.cache_hierarchy.ruby_system.L2Cache_Controller.L1_GET_INSTR::total         3140                       (Unspecified)
board.cache_hierarchy.ruby_system.L2Cache_Controller.L1_GETS |        2213      5.88%      5.88% |        2162      5.74%     11.61% |        2323      6.17%     17.78% |        2363      6.27%     24.05% |        2375      6.31%     30.36% |        2410      6.40%     36.76% |        2393      6.35%     43.11% |        2360      6.27%     49.38% |        2359      6.26%     55.64% |        2394      6.36%     61.99% |        2530      6.72%     68.71% |        2317      6.15%     74.86% |        2377      6.31%     81.17% |        2381      6.32%     87.49% |        2380      6.32%     93.81% |        2331      6.19%    100.00% (Unspecified)
board.cache_hierarchy.ruby_system.L2Cache_Controller.L1_GETS::total        37668                       (Unspecified)
board.cache_hierarchy.ruby_system.L2Cache_Controller.L1_GETX |          56      4.48%      4.48% |          61      4.88%      9.35% |          65      5.20%     14.55% |          66      5.28%     19.82% |         110      8.79%     28.62% |         120      9.59%     38.21% |          81      6.47%     44.68% |          89      7.11%     51.80% |          89      7.11%     58.91% |          56      4.48%     63.39% |         183     14.63%     78.02% |          41      3.28%     81.29% |          73      5.84%     87.13% |          72      5.76%     92.89% |          50      4.00%     96.88% |          39      3.12%    100.00% (Unspecified)
board.cache_hierarchy.ruby_system.L2Cache_Controller.L1_GETX::total         1251                       (Unspecified)
board.cache_hierarchy.ruby_system.L2Cache_Controller.L1_UPGRADE |           1      0.45%      0.45% |          61     27.73%     28.18% |          21      9.55%     37.73% |          10      4.55%     42.27% |           6      2.73%     45.00% |          33     15.00%     60.00% |           8      3.64%     63.64% |           5      2.27%     65.91% |           2      0.91%     66.82% |           2      0.91%     67.73% |          40     18.18%     85.91% |           0      0.00%     85.91% |          10      4.55%     90.45% |           3      1.36%     91.82% |          17      7.73%     99.55% |           1      0.45%    100.00% (Unspecified)
board.cache_hierarchy.ruby_system.L2Cache_Controller.L1_UPGRADE::total          220                       (Unspecified)
board.cache_hierarchy.ruby_system.L2Cache_Controller.L1_PUTX |          37      5.94%      5.94% |          56      8.99%     14.93% |          31      4.98%     19.90% |          47      7.54%     27.45% |          62      9.95%     37.40% |          63     10.11%     47.51% |          46      7.38%     54.90% |          46      7.38%     62.28% |          46      7.38%     69.66% |          30      4.82%     74.48% |          32      5.14%     79.61% |          12      1.93%     81.54% |          28      4.49%     86.04% |          39      6.26%     92.30% |          29      4.65%     96.95% |          19      3.05%    100.00% (Unspecified)
board.cache_hierarchy.ruby_system.L2Cache_Controller.L1_PUTX::total          623                       (Unspecified)
board.cache_hierarchy.ruby_system.L2Cache_Controller.Mem_Data |          72      5.41%      5.41% |          83      6.24%     11.65% |          90      6.76%     18.41% |          91      6.84%     25.24% |         105      7.89%     33.13% |         105      7.89%     41.02% |          86      6.46%     47.48% |          82      6.16%     53.64% |          85      6.39%     60.03% |          88      6.61%     66.64% |          71      5.33%     71.98% |          56      4.21%     76.18% |          76      5.71%     81.89% |          89      6.69%     88.58% |          75      5.63%     94.21% |          77      5.79%    100.00% (Unspecified)
board.cache_hierarchy.ruby_system.L2Cache_Controller.Mem_Data::total         1331                       (Unspecified)
board.cache_hierarchy.ruby_system.L2Cache_Controller.WB_Data |          22      3.82%      3.82% |          84     14.58%     18.40% |          55      9.55%     27.95% |          28      4.86%     32.81% |          27      4.69%     37.50% |          60     10.42%     47.92% |          24      4.17%     52.08% |          22      3.82%     55.90% |          20      3.47%     59.38% |          40      6.94%     66.32% |          67     11.63%     77.95% |          19      3.30%     81.25% |          24      4.17%     85.42% |          23      3.99%     89.41% |          35      6.08%     95.49% |          26      4.51%    100.00% (Unspecified)
board.cache_hierarchy.ruby_system.L2Cache_Controller.WB_Data::total          576                       (Unspecified)
board.cache_hierarchy.ruby_system.L2Cache_Controller.WB_Data_clean |         109      5.95%      5.95% |         116      6.33%     12.27% |         115      6.27%     18.55% |         130      7.09%     25.64% |         114      6.22%     31.86% |         118      6.44%     38.30% |         116      6.33%     44.63% |         113      6.16%     50.79% |         113      6.16%     56.96% |         111      6.06%     63.01% |         114      6.22%     69.23% |         110      6.00%     75.23% |         116      6.33%     81.56% |         116      6.33%     87.89% |         115      6.27%     94.16% |         107      5.84%    100.00% (Unspecified)
board.cache_hierarchy.ruby_system.L2Cache_Controller.WB_Data_clean::total         1833                       (Unspecified)
board.cache_hierarchy.ruby_system.L2Cache_Controller.Unblock |         131      5.44%      5.44% |         200      8.30%     13.74% |         170      7.06%     20.80% |         158      6.56%     27.36% |         141      5.85%     33.21% |         178      7.39%     40.60% |         140      5.81%     46.41% |         135      5.60%     52.01% |         133      5.52%     57.53% |         151      6.27%     63.80% |         181      7.51%     71.32% |         129      5.35%     76.67% |         140      5.81%     82.48% |         139      5.77%     88.25% |         150      6.23%     94.48% |         133      5.52%    100.00% (Unspecified)
board.cache_hierarchy.ruby_system.L2Cache_Controller.Unblock::total         2409                       (Unspecified)
board.cache_hierarchy.ruby_system.L2Cache_Controller.Exclusive_Unblock |         195      5.57%      5.57% |         268      7.65%     13.21% |         217      6.19%     19.41% |         221      6.31%     25.71% |         266      7.59%     33.30% |         293      8.36%     41.67% |         228      6.51%     48.17% |         225      6.42%     54.59% |         223      6.36%     60.96% |         187      5.34%     66.30% |         251      7.16%     73.46% |         155      4.42%     77.88% |         203      5.79%     83.68% |         194      5.54%     89.21% |         202      5.76%     94.98% |         176      5.02%    100.00% (Unspecified)
board.cache_hierarchy.ruby_system.L2Cache_Controller.Exclusive_Unblock::total         3504                       (Unspecified)
board.cache_hierarchy.ruby_system.L2Cache_Controller.NP.L1_GET_INSTR |          26      6.74%      6.74% |          26      6.74%     13.47% |          27      6.99%     20.47% |          28      7.25%     27.72% |          26      6.74%     34.46% |          25      6.48%     40.93% |          20      5.18%     46.11% |          19      4.92%     51.04% |          21      5.44%     56.48% |          25      6.48%     62.95% |          24      6.22%     69.17% |          22      5.70%     74.87% |          27      6.99%     81.87% |          26      6.74%     88.60% |          21      5.44%     94.04% |          23      5.96%    100.00% (Unspecified)
board.cache_hierarchy.ruby_system.L2Cache_Controller.NP.L1_GET_INSTR::total          386                       (Unspecified)
board.cache_hierarchy.ruby_system.L2Cache_Controller.NP.L1_GETS |           0      0.00%      0.00% |           2      3.03%      3.03% |           0      0.00%      3.03% |           0      0.00%      3.03% |          16     24.24%     27.27% |           1      1.52%     28.79% |           3      4.55%     33.33% |           0      0.00%     33.33% |           1      1.52%     34.85% |          17     25.76%     60.61% |           1      1.52%     62.12% |           2      3.03%     65.15% |           1      1.52%     66.67% |           0      0.00%     66.67% |           5      7.58%     74.24% |          17     25.76%    100.00% (Unspecified)
board.cache_hierarchy.ruby_system.L2Cache_Controller.NP.L1_GETS::total           66                       (Unspecified)
board.cache_hierarchy.ruby_system.L2Cache_Controller.NP.L1_GETX |          46      5.23%      5.23% |          55      6.26%     11.49% |          63      7.17%     18.66% |          63      7.17%     25.82% |          63      7.17%     32.99% |          79      8.99%     41.98% |          63      7.17%     49.15% |          63      7.17%     56.31% |          63      7.17%     63.48% |          46      5.23%     68.71% |          46      5.23%     73.95% |          32      3.64%     77.59% |          48      5.46%     83.05% |          63      7.17%     90.22% |          49      5.57%     95.79% |          37      4.21%    100.00% (Unspecified)
board.cache_hierarchy.ruby_system.L2Cache_Controller.NP.L1_GETX::total          879                       (Unspecified)
board.cache_hierarchy.ruby_system.L2Cache_Controller.SS.L1_GET_INSTR |         139      5.06%      5.06% |         171      6.22%     11.29% |         204      7.43%     18.71% |         233      8.48%     27.19% |         197      7.17%     34.36% |         147      5.35%     39.72% |         189      6.88%     46.60% |         146      5.31%     51.91% |         193      7.03%     58.94% |         183      6.66%     65.60% |         182      6.63%     72.22% |         175      6.37%     78.59% |         179      6.52%     85.11% |         163      5.93%     91.04% |         135      4.91%     95.96% |         111      4.04%    100.00% (Unspecified)
board.cache_hierarchy.ruby_system.L2Cache_Controller.SS.L1_GET_INSTR::total         2747                       (Unspecified)
board.cache_hierarchy.ruby_system.L2Cache_Controller.SS.L1_GETS |        1799      6.16%      6.16% |        1811      6.21%     12.37% |        1831      6.27%     18.65% |        1834      6.28%     24.93% |        1823      6.25%     31.18% |        1804      6.18%     37.36% |        1834      6.28%     43.64% |        1812      6.21%     49.85% |        1813      6.21%     56.07% |        1845      6.32%     62.39% |        1865      6.39%     68.78% |        1811      6.21%     74.99% |        1821      6.24%     81.23% |        1822      6.24%     87.47% |        1824      6.25%     93.72% |        1832      6.28%    100.00% (Unspecified)
board.cache_hierarchy.ruby_system.L2Cache_Controller.SS.L1_GETS::total        29181                       (Unspecified)
board.cache_hierarchy.ruby_system.L2Cache_Controller.SS.L1_GETX |           0      0.00%      0.00% |           0      0.00%      0.00% |           0      0.00%      0.00% |           0      0.00%      0.00% |           4     14.29%     14.29% |           0      0.00%     14.29% |           0      0.00%     14.29% |           0      0.00%     14.29% |           0      0.00%     14.29% |           0      0.00%     14.29% |          24     85.71%    100.00% |           0      0.00%    100.00% |           0      0.00%    100.00% |           0      0.00%    100.00% |           0      0.00%    100.00% |           0      0.00%    100.00% (Unspecified)
board.cache_hierarchy.ruby_system.L2Cache_Controller.SS.L1_GETX::total           28                       (Unspecified)
board.cache_hierarchy.ruby_system.L2Cache_Controller.SS.L1_UPGRADE |           1      0.49%      0.49% |          61     29.61%     30.10% |          21     10.19%     40.29% |          10      4.85%     45.15% |           6      2.91%     48.06% |          33     16.02%     64.08% |           8      3.88%     67.96% |           5      2.43%     70.39% |           2      0.97%     71.36% |           2      0.97%     72.33% |          26     12.62%     84.95% |           0      0.00%     84.95% |          10      4.85%     89.81% |           3      1.46%     91.26% |          17      8.25%     99.51% |           1      0.49%    100.00% (Unspecified)
board.cache_hierarchy.ruby_system.L2Cache_Controller.SS.L1_UPGRADE::total          206                       (Unspecified)
board.cache_hierarchy.ruby_system.L2Cache_Controller.M.L1_GETS |         138      6.70%      6.70% |         144      6.99%     13.69% |         131      6.36%     20.05% |         145      7.04%     27.09% |         135      6.55%     33.64% |         139      6.75%     40.39% |         136      6.60%     46.99% |         131      6.36%     53.35% |         131      6.36%     59.71% |         112      5.44%     65.15% |         119      5.78%     70.92% |         112      5.44%     76.36% |         119      5.78%     82.14% |         119      5.78%     87.91% |         130      6.31%     94.22% |         119      5.78%    100.00% (Unspecified)
board.cache_hierarchy.ruby_system.L2Cache_Controller.M.L1_GETS::total         2060                       (Unspecified)
board.cache_hierarchy.ruby_system.L2Cache_Controller.M.L1_GETX |           2      2.60%      2.60% |           3      3.90%      6.49% |           2      2.60%      9.09% |           3      3.90%     12.99% |          21     27.27%     40.26% |          17     22.08%     62.34% |           2      2.60%     64.94% |           2      2.60%     67.53% |           2      2.60%     70.13% |           2      2.60%     72.73% |           2      2.60%     75.32% |           1      1.30%     76.62% |          14     18.18%     94.81% |           1      1.30%     96.10% |           1      1.30%     97.40% |           2      2.60%    100.00% (Unspecified)
board.cache_hierarchy.ruby_system.L2Cache_Controller.M.L1_GETX::total           77                       (Unspecified)
board.cache_hierarchy.ruby_system.L2Cache_Controller.MT.L1_GETS |         131      5.44%      5.44% |         200      8.30%     13.74% |         170      7.06%     20.80% |         158      6.56%     27.36% |         141      5.85%     33.21% |         178      7.39%     40.60% |         140      5.81%     46.41% |         135      5.60%     52.01% |         133      5.52%     57.53% |         151      6.27%     63.80% |         181      7.51%     71.32% |         129      5.35%     76.67% |         140      5.81%     82.48% |         139      5.77%     88.25% |         150      6.23%     94.48% |         133      5.52%    100.00% (Unspecified)
board.cache_hierarchy.ruby_system.L2Cache_Controller.MT.L1_GETS::total         2409                       (Unspecified)
board.cache_hierarchy.ruby_system.L2Cache_Controller.MT.L1_GETX |           8      4.26%      4.26% |           3      1.60%      5.85% |           0      0.00%      5.85% |           0      0.00%      5.85% |          21     11.17%     17.02% |          24     12.77%     29.79% |          16      8.51%     38.30% |          24     12.77%     51.06% |          24     12.77%     63.83% |           8      4.26%     68.09% |          33     17.55%     85.64% |           8      4.26%     89.89% |          11      5.85%     95.74% |           8      4.26%    100.00% |           0      0.00%    100.00% |           0      0.00%    100.00% (Unspecified)
board.cache_hierarchy.ruby_system.L2Cache_Controller.MT.L1_GETX::total          188                       (Unspecified)
board.cache_hierarchy.ruby_system.L2Cache_Controller.MT.L1_PUTX |          37      5.94%      5.94% |          56      8.99%     14.93% |          31      4.98%     19.90% |          47      7.54%     27.45% |          62      9.95%     37.40% |          63     10.11%     47.51% |          46      7.38%     54.90% |          46      7.38%     62.28% |          46      7.38%     69.66% |          30      4.82%     74.48% |          32      5.14%     79.61% |          12      1.93%     81.54% |          28      4.49%     86.04% |          39      6.26%     92.30% |          29      4.65%     96.95% |          19      3.05%    100.00% (Unspecified)
board.cache_hierarchy.ruby_system.L2Cache_Controller.MT.L1_PUTX::total          623                       (Unspecified)
board.cache_hierarchy.ruby_system.L2Cache_Controller.ISS.Mem_Data |           0      0.00%      0.00% |           2      3.03%      3.03% |           0      0.00%      3.03% |           0      0.00%      3.03% |          16     24.24%     27.27% |           1      1.52%     28.79% |           3      4.55%     33.33% |           0      0.00%     33.33% |           1      1.52%     34.85% |          17     25.76%     60.61% |           1      1.52%     62.12% |           2      3.03%     65.15% |           1      1.52%     66.67% |           0      0.00%     66.67% |           5      7.58%     74.24% |          17     25.76%    100.00% (Unspecified)
board.cache_hierarchy.ruby_system.L2Cache_Controller.ISS.Mem_Data::total           66                       (Unspecified)
board.cache_hierarchy.ruby_system.L2Cache_Controller.IS.L1_GET_INSTR |           0      0.00%      0.00% |           0      0.00%      0.00% |           1     14.29%     14.29% |           0      0.00%     14.29% |           0      0.00%     14.29% |           6     85.71%    100.00% |           0      0.00%    100.00% |           0      0.00%    100.00% |           0      0.00%    100.00% |           0      0.00%    100.00% |           0      0.00%    100.00% |           0      0.00%    100.00% |           0      0.00%    100.00% |           0      0.00%    100.00% |           0      0.00%    100.00% |           0      0.00%    100.00% (Unspecified)
board.cache_hierarchy.ruby_system.L2Cache_Controller.IS.L1_GET_INSTR::total            7                       (Unspecified)
board.cache_hierarchy.ruby_system.L2Cache_Controller.IS.Mem_Data |          26      6.74%      6.74% |          26      6.74%     13.47% |          27      6.99%     20.47% |          28      7.25%     27.72% |          26      6.74%     34.46% |          25      6.48%     40.93% |          20      5.18%     46.11% |          19      4.92%     51.04% |          21      5.44%     56.48% |          25      6.48%     62.95% |          24      6.22%     69.17% |          22      5.70%     74.87% |          27      6.99%     81.87% |          26      6.74%     88.60% |          21      5.44%     94.04% |          23      5.96%    100.00% (Unspecified)
board.cache_hierarchy.ruby_system.L2Cache_Controller.IS.Mem_Data::total          386                       (Unspecified)
board.cache_hierarchy.ruby_system.L2Cache_Controller.IM.Mem_Data |          46      5.23%      5.23% |          55      6.26%     11.49% |          63      7.17%     18.66% |          63      7.17%     25.82% |          63      7.17%     32.99% |          79      8.99%     41.98% |          63      7.17%     49.15% |          63      7.17%     56.31% |          63      7.17%     63.48% |          46      5.23%     68.71% |          46      5.23%     73.95% |          32      3.64%     77.59% |          48      5.46%     83.05% |          63      7.17%     90.22% |          49      5.57%     95.79% |          37      4.21%    100.00% (Unspecified)
board.cache_hierarchy.ruby_system.L2Cache_Controller.IM.Mem_Data::total          879                       (Unspecified)
board.cache_hierarchy.ruby_system.L2Cache_Controller.SS_MB.L1_GETS |           0      0.00%      0.00% |           5     13.89%     13.89% |           0      0.00%     13.89% |           0      0.00%     13.89% |           0      0.00%     13.89% |           0      0.00%     13.89% |           0      0.00%     13.89% |           0      0.00%     13.89% |           0      0.00%     13.89% |           0      0.00%     13.89% |          31     86.11%    100.00% |           0      0.00%    100.00% |           0      0.00%    100.00% |           0      0.00%    100.00% |           0      0.00%    100.00% |           0      0.00%    100.00% (Unspecified)
board.cache_hierarchy.ruby_system.L2Cache_Controller.SS_MB.L1_GETS::total           36                       (Unspecified)
board.cache_hierarchy.ruby_system.L2Cache_Controller.SS_MB.L1_GETX |           0      0.00%      0.00% |           0      0.00%      0.00% |           0      0.00%      0.00% |           0      0.00%      0.00% |           0      0.00%      0.00% |           0      0.00%      0.00% |           0      0.00%      0.00% |           0      0.00%      0.00% |           0      0.00%      0.00% |           0      0.00%      0.00% |          19    100.00%    100.00% |           0      0.00%    100.00% |           0      0.00%    100.00% |           0      0.00%    100.00% |           0      0.00%    100.00% |           0      0.00%    100.00% (Unspecified)
board.cache_hierarchy.ruby_system.L2Cache_Controller.SS_MB.L1_GETX::total           19                       (Unspecified)
board.cache_hierarchy.ruby_system.L2Cache_Controller.SS_MB.L1_UPGRADE |           0      0.00%      0.00% |           0      0.00%      0.00% |           0      0.00%      0.00% |           0      0.00%      0.00% |           0      0.00%      0.00% |           0      0.00%      0.00% |           0      0.00%      0.00% |           0      0.00%      0.00% |           0      0.00%      0.00% |           0      0.00%      0.00% |          10    100.00%    100.00% |           0      0.00%    100.00% |           0      0.00%    100.00% |           0      0.00%    100.00% |           0      0.00%    100.00% |           0      0.00%    100.00% (Unspecified)
board.cache_hierarchy.ruby_system.L2Cache_Controller.SS_MB.L1_UPGRADE::total           10                       (Unspecified)
board.cache_hierarchy.ruby_system.L2Cache_Controller.SS_MB.Exclusive_Unblock |           1      0.43%      0.43% |          61     26.07%     26.50% |          21      8.97%     35.47% |          10      4.27%     39.74% |          10      4.27%     44.02% |          33     14.10%     58.12% |           8      3.42%     61.54% |           5      2.14%     63.68% |           2      0.85%     64.53% |           2      0.85%     65.38% |          50     21.37%     86.75% |           0      0.00%     86.75% |          10      4.27%     91.03% |           3      1.28%     92.31% |          17      7.26%     99.57% |           1      0.43%    100.00% (Unspecified)
board.cache_hierarchy.ruby_system.L2Cache_Controller.SS_MB.Exclusive_Unblock::total          234                       (Unspecified)
board.cache_hierarchy.ruby_system.L2Cache_Controller.MT_MB.L1_GETS |           1      3.33%      3.33% |           0      0.00%      3.33% |           0      0.00%      3.33% |           0      0.00%      3.33% |           0      0.00%      3.33% |           0      0.00%      3.33% |           0      0.00%      3.33% |           0      0.00%      3.33% |           0      0.00%      3.33% |           0      0.00%      3.33% |          26     86.67%     90.00% |           0      0.00%     90.00% |           0      0.00%     90.00% |           0      0.00%     90.00% |           3     10.00%    100.00% |           0      0.00%    100.00% (Unspecified)
board.cache_hierarchy.ruby_system.L2Cache_Controller.MT_MB.L1_GETS::total           30                       (Unspecified)
board.cache_hierarchy.ruby_system.L2Cache_Controller.MT_MB.L1_GETX |           0      0.00%      0.00% |           0      0.00%      0.00% |           0      0.00%      0.00% |           0      0.00%      0.00% |           0      0.00%      0.00% |           0      0.00%      0.00% |           0      0.00%      0.00% |           0      0.00%      0.00% |           0      0.00%      0.00% |           0      0.00%      0.00% |          39    100.00%    100.00% |           0      0.00%    100.00% |           0      0.00%    100.00% |           0      0.00%    100.00% |           0      0.00%    100.00% |           0      0.00%    100.00% (Unspecified)
board.cache_hierarchy.ruby_system.L2Cache_Controller.MT_MB.L1_GETX::total           39                       (Unspecified)
board.cache_hierarchy.ruby_system.L2Cache_Controller.MT_MB.Exclusive_Unblock |         194      5.93%      5.93% |         207      6.33%     12.26% |         196      5.99%     18.26% |         211      6.45%     24.71% |         256      7.83%     32.54% |         260      7.95%     40.49% |         220      6.73%     47.22% |         220      6.73%     53.94% |         221      6.76%     60.70% |         185      5.66%     66.36% |         201      6.15%     72.51% |         155      4.74%     77.25% |         193      5.90%     83.15% |         191      5.84%     88.99% |         185      5.66%     94.65% |         175      5.35%    100.00% (Unspecified)
board.cache_hierarchy.ruby_system.L2Cache_Controller.MT_MB.Exclusive_Unblock::total         3270                       (Unspecified)
board.cache_hierarchy.ruby_system.L2Cache_Controller.MT_IIB.L1_GETS |          38      2.09%      2.09% |           0      0.00%      2.09% |         160      8.81%     10.90% |         152      8.37%     19.26% |         190     10.46%     29.72% |         186     10.24%     39.96% |         147      8.09%     48.05% |         130      7.15%     55.20% |         108      5.94%     61.14% |          95      5.23%     66.37% |         118      6.49%     72.87% |          89      4.90%     77.77% |          98      5.39%     83.16% |          92      5.06%     88.22% |         130      7.15%     95.38% |          84      4.62%    100.00% (Unspecified)
board.cache_hierarchy.ruby_system.L2Cache_Controller.MT_IIB.L1_GETS::total         1817                       (Unspecified)
board.cache_hierarchy.ruby_system.L2Cache_Controller.MT_IIB.L1_GETX |           0      0.00%      0.00% |           0      0.00%      0.00% |           0      0.00%      0.00% |           0      0.00%      0.00% |           0      0.00%      0.00% |           0      0.00%      0.00% |           0      0.00%      0.00% |           0      0.00%      0.00% |           0      0.00%      0.00% |           0      0.00%      0.00% |          20    100.00%    100.00% |           0      0.00%    100.00% |           0      0.00%    100.00% |           0      0.00%    100.00% |           0      0.00%    100.00% |           0      0.00%    100.00% (Unspecified)
board.cache_hierarchy.ruby_system.L2Cache_Controller.MT_IIB.L1_GETX::total           20                       (Unspecified)
board.cache_hierarchy.ruby_system.L2Cache_Controller.MT_IIB.WB_Data |          22      4.01%      4.01% |          68     12.41%     16.42% |          55     10.04%     26.46% |          28      5.11%     31.57% |          26      4.74%     36.31% |          60     10.95%     47.26% |          24      4.38%     51.64% |          21      3.83%     55.47% |          20      3.65%     59.12% |          40      7.30%     66.42% |          58     10.58%     77.01% |          19      3.47%     80.47% |          24      4.38%     84.85% |          23      4.20%     89.05% |          35      6.39%     95.44% |          25      4.56%    100.00% (Unspecified)
board.cache_hierarchy.ruby_system.L2Cache_Controller.MT_IIB.WB_Data::total          548                       (Unspecified)
board.cache_hierarchy.ruby_system.L2Cache_Controller.MT_IIB.WB_Data_clean |         109      6.06%      6.06% |          99      5.50%     11.56% |         115      6.39%     17.94% |         115      6.39%     24.33% |         114      6.33%     30.67% |         118      6.56%     37.22% |         116      6.44%     43.67% |         113      6.28%     49.94% |         113      6.28%     56.22% |         111      6.17%     62.39% |         114      6.33%     68.72% |         110      6.11%     74.83% |         116      6.44%     81.28% |         116      6.44%     87.72% |         114      6.33%     94.06% |         107      5.94%    100.00% (Unspecified)
board.cache_hierarchy.ruby_system.L2Cache_Controller.MT_IIB.WB_Data_clean::total         1800                       (Unspecified)
board.cache_hierarchy.ruby_system.L2Cache_Controller.MT_IIB.Unblock |           0      0.00%      0.00% |          33     54.10%     54.10% |           0      0.00%     54.10% |          15     24.59%     78.69% |           1      1.64%     80.33% |           0      0.00%     80.33% |           0      0.00%     80.33% |           1      1.64%     81.97% |           0      0.00%     81.97% |           0      0.00%     81.97% |           9     14.75%     96.72% |           0      0.00%     96.72% |           0      0.00%     96.72% |           0      0.00%     96.72% |           1      1.64%     98.36% |           1      1.64%    100.00% (Unspecified)
board.cache_hierarchy.ruby_system.L2Cache_Controller.MT_IIB.Unblock::total           61                       (Unspecified)
board.cache_hierarchy.ruby_system.L2Cache_Controller.MT_IB.WB_Data |           0      0.00%      0.00% |          16     57.14%     57.14% |           0      0.00%     57.14% |           0      0.00%     57.14% |           1      3.57%     60.71% |           0      0.00%     60.71% |           0      0.00%     60.71% |           1      3.57%     64.29% |           0      0.00%     64.29% |           0      0.00%     64.29% |           9     32.14%     96.43% |           0      0.00%     96.43% |           0      0.00%     96.43% |           0      0.00%     96.43% |           0      0.00%     96.43% |           1      3.57%    100.00% (Unspecified)
board.cache_hierarchy.ruby_system.L2Cache_Controller.MT_IB.WB_Data::total           28                       (Unspecified)
[...]
board.processor.cores9.core.executeStats0.numNop            0                       # Number of nop insts executed (Count)
board.processor.cores9.core.executeStats0.numBranches        11140                       # Number of branches executed (Count)
board.processor.cores9.core.executeStats0.numLoadInsts        45929                       # Number of load instructions executed (Count)
board.processor.cores9.core.executeStats0.numStoreInsts        17249                       # Number of stores executed (Count)
board.processor.cores9.core.executeStats0.instRate     0.659924                       # Inst execution rate ((Count/Cycle))
board.processor.cores9.core.executeStats0.numCCRegReads        27951                       # Number of times the CC registers were read (Count)
board.processor.cores9.core.executeStats0.numCCRegWrites        43046                       # Number of times the CC registers were written (Count)
board.processor.cores9.core.executeStats0.numFpRegReads          670                       # Number of times the floating registers were read (Count)
board.processor.cores9.core.executeStats0.numFpRegWrites          402                       # Number of times the floating registers were written (Count)
board.processor.cores9.core.executeStats0.numIntRegReads       246448                       # Number of times the integer registers were read (Count)
board.processor.cores9.core.executeStats0.numIntRegWrites       142632                       # Number of times the integer registers were written (Count)
board.processor.cores9.core.executeStats0.numMemRefs        63178                       # Number of memory refs (Count)
board.processor.cores9.core.executeStats0.numMiscRegReads        87529                       # Number of times the Misc registers were read (Count)
board.processor.cores9.core.executeStats0.numMiscRegWrites            1                       # Number of times the Misc registers were written (Count)
board.processor.cores9.core.executeStats0.numVecAluAccesses            0                       # Number of vector alu accesses (Count)
board.processor.cores9.core.executeStats0.numDiscardedOps            0                       # Number of ops (including micro ops) which were discarded before commit (Count)
board.processor.cores9.core.fetch.predictedBranches        23262                       # Number of branches that fetch has predicted taken (Count)
board.processor.cores9.core.fetch.cycles       238281                       # Number of cycles fetch has run and was not squashing or blocked (Cycle)
board.processor.cores9.core.fetch.squashCycles         4908                       # Number of cycles fetch has spent squashing (Cycle)
board.processor.cores9.core.fetch.miscStallCycles          157                       # Number of cycles fetch has spent waiting on interrupts, or bad addresses, or out of MSHRs (Cycle)
board.processor.cores9.core.fetch.pendingTrapStallCycles          994                       # Number of stall cycles due to pending traps (Cycle)
board.processor.cores9.core.fetch.cacheLines        33734                       # Number of cache lines fetched (Count)
board.processor.cores9.core.fetch.icacheSquashes         2149                       # Number of outstanding Icache misses that were squashed (Count)
board.processor.cores9.core.fetch.nisnDist::samples       280145                       # Number of instructions fetched each cycle (Total) (Count)
board.processor.cores9.core.fetch.nisnDist::mean     1.368966                       # Number of instructions fetched each cycle (Total) (Count)
board.processor.cores9.core.fetch.nisnDist::stdev     2.705378                       # Number of instructions fetched each cycle (Total) (Count)
board.processor.cores9.core.fetch.nisnDist::underflows            0      0.00%      0.00% # Number of instructions fetched each cycle (Total) (Count)
board.processor.cores9.core.fetch.nisnDist::0       216656     77.34%     77.34% # Number of instructions fetched each cycle (Total) (Count)
board.processor.cores9.core.fetch.nisnDist::1          142      0.05%     77.39% # Number of instructions fetched each cycle (Total) (Count)
board.processor.cores9.core.fetch.nisnDist::2         4159      1.48%     78.87% # Number of instructions fetched each cycle (Total) (Count)
board.processor.cores9.core.fetch.nisnDist::3          149      0.05%     78.93% # Number of instructions fetched each cycle (Total) (Count)
board.processor.cores9.core.fetch.nisnDist::4        18555      6.62%     85.55% # Number of instructions fetched each cycle (Total) (Count)
board.processor.cores9.core.fetch.nisnDist::5          164      0.06%     85.61% # Number of instructions fetched each cycle (Total) (Count)
board.processor.cores9.core.fetch.nisnDist::6        10398      3.71%     89.32% # Number of instructions fetched each cycle (Total) (Count)
board.processor.cores9.core.fetch.nisnDist::7         2202      0.79%     90.11% # Number of instructions fetched each cycle (Total) (Count)
board.processor.cores9.core.fetch.nisnDist::8        27720      9.89%    100.00% # Number of instructions fetched each cycle (Total) (Count)
board.processor.cores9.core.fetch.nisnDist::overflows            0      0.00%    100.00% # Number of instructions fetched each cycle (Total) (Count)
board.processor.cores9.core.fetch.nisnDist::min_value            0                       # Number of instructions fetched each cycle (Total) (Count)
board.processor.cores9.core.fetch.nisnDist::max_value            8                       # Number of instructions fetched each cycle (Total) (Count)
board.processor.cores9.core.fetch.nisnDist::total       280145                       # Number of instructions fetched each cycle (Total) (Count)
board.processor.cores9.core.fetchStats0.numInsts       258367                       # Number of instructions fetched (thread level) (Count)
board.processor.cores9.core.fetchStats0.numOps            0                       # Number of ops (including micro ops) fetched (thread level) (Count)
board.processor.cores9.core.fetchStats0.fetchRate     0.912906                       # Number of inst fetches per cycle ((Count/Cycle))
board.processor.cores9.core.fetchStats0.numBranches        23945                       # Number of branches fetched (Count)
board.processor.cores9.core.fetchStats0.branchRate     0.084607                       # Number of branch fetches per cycle (Ratio)
board.processor.cores9.core.fetchStats0.icacheStallCycles        38259                       # ICache total stall cycles (Cycle)
board.processor.cores9.core.fetchStats0.numFetchSuspends            0                       # Number of times Execute suspended instruction fetching (Count)
board.processor.cores9.core.iew.idleCycles            0                       # Number of cycles IEW is idle (Cycle)
board.processor.cores9.core.iew.squashCycles         2327                       # Number of cycles IEW is squashing (Cycle)
board.processor.cores9.core.iew.blockCycles       144411                       # Number of cycles IEW is blocking (Cycle)
board.processor.cores9.core.iew.unblockCycles         6350                       # Number of cycles IEW is unblocking (Cycle)
board.processor.cores9.core.iew.dispatchedInsts       282613                       # Number of instructions dispatched to IQ (Count)
board.processor.cores9.core.iew.dispSquashedInsts            9                       # Number of squashed instructions skipped by dispatch (Count)
board.processor.cores9.core.iew.dispLoadInsts        72835                       # Number of dispatched load instructions (Count)
board.processor.cores9.core.iew.dispStoreInsts        29749                       # Number of dispatched store instructions (Count)
board.processor.cores9.core.iew.dispNonSpecInsts         4163                       # Number of dispatched non-speculative instructions (Count)
board.processor.cores9.core.iew.iqFullEvents         4124                       # Number of times the IQ has become full, causing a stall (Count)
board.processor.cores9.core.iew.lsqFullEvents          171                       # Number of times the LSQ has become full, causing a stall (Count)
board.processor.cores9.core.iew.memOrderViolationEvents         2055                       # Number of memory order violations (Count)
board.processor.cores9.core.iew.predictedTakenIncorrect           10                       # Number of branches that were predicted taken incorrectly (Count)
board.processor.cores9.core.iew.predictedNotTakenIncorrect          261                       # Number of branches that were predicted not taken incorrectly (Count)
board.processor.cores9.core.iew.branchMispredicts          271                       # Number of branch mispredicts detected at execute (Count)
board.processor.cores9.core.iew.instsToCommit       186723                       # Cumulative count of insts sent to commit (Count)
board.processor.cores9.core.iew.writebackCount       186440                       # Cumulative count of insts written-back (Count)
board.processor.cores9.core.iew.producerInst       130271                       # Number of instructions producing a value (Count)
board.processor.cores9.core.iew.consumerInst       251735                       # Number of instructions consuming a value (Count)
board.processor.cores9.core.iew.wbRate       0.658761                       # Insts written-back per cycle ((Count/Cycle))
board.processor.cores9.core.iew.wbFanout     0.517493                       # Average fanout of values written-back ((Count/Count))
board.processor.cores9.core.interrupts.clk_domain.clock         5328                       # Clock period in ticks (Tick)
board.processor.cores9.core.lsq0.forwLoads         4295                       # Number of loads that had data forwarded from stores (Count)
board.processor.cores9.core.lsq0.squashedLoads        43562                       # Number of loads squashed (Count)
board.processor.cores9.core.lsq0.ignoredResponses            0                       # Number of memory responses ignored because the instruction is squashed (Count)
board.processor.cores9.core.lsq0.memOrderViolation         2055                       # Number of memory ordering violations (Count)
board.processor.cores9.core.lsq0.squashedStores        16732                       # Number of stores squashed (Count)
board.processor.cores9.core.lsq0.rescheduledLoads            0                       # Number of loads that were rescheduled (Count)
board.processor.cores9.core.lsq0.blockedByCache            2                       # Number of times an access to memory failed due to the cache being blocked (Count)
board.processor.cores9.core.lsq0.loadToUse::samples        29273                       # Distribution of cycle latency between the first time a load is issued and its completion (Unspecified)
board.processor.cores9.core.lsq0.loadToUse::mean     6.783486                       # Distribution of cycle latency between the first time a load is issued and its completion (Unspecified)
board.processor.cores9.core.lsq0.loadToUse::stdev    14.570183                       # Distribution of cycle latency between the first time a load is issued and its completion (Unspecified)
board.processor.cores9.core.lsq0.loadToUse::0-9        27152     92.75%     92.75% # Distribution of cycle latency between the first time a load is issued and its completion (Unspecified)
board.processor.cores9.core.lsq0.loadToUse::10-19          129      0.44%     93.20% # Distribution of cycle latency between the first time a load is issued and its completion (Unspecified)
board.processor.cores9.core.lsq0.loadToUse::20-29            2      0.01%     93.20% # Distribution of cycle latency between the first time a load is issued and its completion (Unspecified)
board.processor.cores9.core.lsq0.loadToUse::30-39            1      0.00%     93.21% # Distribution of cycle latency between the first time a load is issued and its completion (Unspecified)
board.processor.cores9.core.lsq0.loadToUse::50-59         1836      6.27%     99.48% # Distribution of cycle latency between the first time a load is issued and its completion (Unspecified)
board.processor.cores9.core.lsq0.loadToUse::60-69          121      0.41%     99.89% # Distribution of cycle latency between the first time a load is issued and its completion (Unspecified)
board.processor.cores9.core.lsq0.loadToUse::70-79            6      0.02%     99.91% # Distribution of cycle latency between the first time a load is issued and its completion (Unspecified)
board.processor.cores9.core.lsq0.loadToUse::80-89            9      0.03%     99.94% # Distribution of cycle latency between the first time a load is issued and its completion (Unspecified)
board.processor.cores9.core.lsq0.loadToUse::90-99            8      0.03%     99.97% # Distribution of cycle latency between the first time a load is issued and its completion (Unspecified)
board.processor.cores9.core.lsq0.loadToUse::100-109            1      0.00%     99.97% # Distribution of cycle latency between the first time a load is issued and its completion (Unspecified)
board.processor.cores9.core.lsq0.loadToUse::120-129            1      0.00%     99.98% # Distribution of cycle latency between the first time a load is issued and its completion (Unspecified)
board.processor.cores9.core.lsq0.loadToUse::140-149            1      0.00%     99.98% # Distribution of cycle latency between the first time a load is issued and its completion (Unspecified)
board.processor.cores9.core.lsq0.loadToUse::150-159            2      0.01%     99.99% # Distribution of cycle latency between the first time a load is issued and its completion (Unspecified)
board.processor.cores9.core.lsq0.loadToUse::160-169            1      0.00%     99.99% # Distribution of cycle latency between the first time a load is issued and its completion (Unspecified)
board.processor.cores9.core.lsq0.loadToUse::210-219            2      0.01%    100.00% # Distribution of cycle latency between the first time a load is issued and its completion (Unspecified)
board.processor.cores9.core.lsq0.loadToUse::240-249            1      0.00%    100.00% # Distribution of cycle latency between the first time a load is issued and its completion (Unspecified)
board.processor.cores9.core.lsq0.loadToUse::min_value            2                       # Distribution of cycle latency between the first time a load is issued and its completion (Unspecified)
board.processor.cores9.core.lsq0.loadToUse::max_value          245                       # Distribution of cycle latency between the first time a load is issued and its completion (Unspecified)
board.processor.cores9.core.lsq0.loadToUse::total        29273                       # Distribution of cycle latency between the first time a load is issued and its completion (Unspecified)
board.processor.cores9.core.mmu.dtb.rdAccesses        45917                       # TLB accesses on read requests (Count)
board.processor.cores9.core.mmu.dtb.wrAccesses        17249                       # TLB accesses on write requests (Count)
board.processor.cores9.core.mmu.dtb.rdMisses          103                       # TLB misses on read requests (Count)
board.processor.cores9.core.mmu.dtb.wrMisses           18                       # TLB misses on write requests (Count)
board.processor.cores9.core.mmu.dtb.walker.power_state.pwrStateResidencyTicks::UNDEFINED    410320935                       # Cumulative time (in ticks) in various power states (Tick)
board.processor.cores9.core.mmu.itb.rdAccesses            0                       # TLB accesses on read requests (Count)
board.processor.cores9.core.mmu.itb.wrAccesses        33894                       # TLB accesses on write requests (Count)
board.processor.cores9.core.mmu.itb.rdMisses            0                       # TLB misses on read requests (Count)
board.processor.cores9.core.mmu.itb.wrMisses          223                       # TLB misses on write requests (Count)
board.processor.cores9.core.mmu.itb.walker.power_state.pwrStateResidencyTicks::UNDEFINED    410320935                       # Cumulative time (in ticks) in various power states (Tick)
board.processor.cores9.core.power_state.pwrStateResidencyTicks::ON    410320935                       # Cumulative time (in ticks) in various power states (Tick)
board.processor.cores9.core.rename.squashCycles         2327                       # Number of cycles rename is squashing (Cycle)
board.processor.cores9.core.rename.idleCycles        26705                       # Number of cycles rename is idle (Cycle)
board.processor.cores9.core.rename.blockCycles       181849                       # Number of cycles rename is blocking (Cycle)
board.processor.cores9.core.rename.serializeStallCycles            0                       # count of cycles rename stalled for serializing inst (Cycle)
board.processor.cores9.core.rename.runCycles        38474                       # Number of cycles rename is running (Cycle)
board.processor.cores9.core.rename.unblockCycles        30790                       # Number of cycles rename is unblocking (Cycle)
board.processor.cores9.core.rename.renamedInsts       299366                       # Number of instructions processed by rename (Count)
board.processor.cores9.core.rename.ROBFullEvents           12                       # Number of times rename has blocked due to ROB full (Count)
board.processor.cores9.core.rename.IQFullEvents        20626                       # Number of times rename has blocked due to IQ full (Count)
board.processor.cores9.core.rename.LQFullEvents           94                       # Number of times rename has blocked due to LQ full (Count)
board.processor.cores9.core.rename.SQFullEvents         7953                       # Number of times rename has blocked due to SQ full (Count)
board.processor.cores9.core.rename.renamedOperands       433096                       # Number of destination operands rename has renamed (Count)
board.processor.cores9.core.rename.lookups       943001                       # Number of register rename lookups that rename has made (Count)
board.processor.cores9.core.rename.intLookups       442102                       # Number of integer rename lookups (Count)
board.processor.cores9.core.rename.fpLookups          675                       # Number of floating rename lookups (Count)
board.processor.cores9.core.rename.committedMaps       162269                       # Number of HB maps that are committed (Count)
board.processor.cores9.core.rename.undoneMaps       270827                       # Number of HB maps that are undone due to squashing (Count)
board.processor.cores9.core.rename.serializing            0                       # count of serializing insts renamed (Count)
board.processor.cores9.core.rename.tempSerializing            0                       # count of temporary serializing insts renamed (Count)
board.processor.cores9.core.rename.skidInsts        60850                       # count of insts added to the skid buffer (Count)
board.processor.cores9.core.rob.reads          536799                       # The number of ROB reads (Count)
board.processor.cores9.core.rob.writes         587877                       # The number of ROB writes (Count)
board.processor.cores9.core.thread_0.numInsts        74584                       # Number of Instructions committed (Count)
board.processor.cores9.core.thread_0.numOps       112402                       # Number of Ops committed (Count)
board.processor.cores9.core.thread_0.numMemRefs            0                       # Number of Memory References (Count)
board.workload.inst.arm                             0                       # number of arm instructions executed (Count)
board.workload.inst.quiesce                         0                       # number of quiesce instructions executed (Count)

---------- End Simulation Statistics   ----------
