
---------- Begin Simulation Statistics ----------
simSeconds                                   0.000113                       # Number of seconds simulated (Second)
simTicks                                    113006880                       # Number of ticks simulated (Tick)
finalTick                                   377437518                       # Number of ticks from beginning of simulation (restored from checkpoints and never reset) (Tick)
simFreq                                  1000000000000                       # The number of ticks per simulated second ((Tick/Second))
hostSeconds                                     25.02                       # Real time elapsed on the host (Second)
hostTickRate                                  4517167                       # The number of ticks simulated per host second (ticks/s) ((Tick/Second))
hostMemory                                    1755520                       # Number of bytes of host memory used (Byte)
simInsts                                      1796616                       # Number of instructions simulated (Count)
simOps                                        3022070                       # Number of ops (including micro ops) simulated (Count)
hostInstRate                                    71815                       # Simulator instruction rate (inst/s) ((Count/Second))
hostOpRate                                     120799                       # Simulator op (including micro ops) rate (op/s) ((Count/Second))
board.cache_hierarchy.ruby_system.delayHistogram::bucket_size           16                       # delay histogram for all message (Unspecified)
board.cache_hierarchy.ruby_system.delayHistogram::max_bucket          159                       # delay histogram for all message (Unspecified)
board.cache_hierarchy.ruby_system.delayHistogram::samples        21395                       # delay histogram for all message (Unspecified)
board.cache_hierarchy.ruby_system.delayHistogram::mean     0.390559                       # delay histogram for all message (Unspecified)
board.cache_hierarchy.ruby_system.delayHistogram::stdev     1.883968                       # delay histogram for all message (Unspecified)
board.cache_hierarchy.ruby_system.delayHistogram |       21350     99.79%     99.79% |          42      0.20%     99.99% |           2      0.01%    100.00% |           0      0.00%    100.00% |           0      0.00%    100.00% |           1      0.00%    100.00% |           0      0.00%    100.00% |           0      0.00%    100.00% |           0      0.00%    100.00% |           0      0.00%    100.00% # delay histogram for all message (Unspecified)
board.cache_hierarchy.ruby_system.delayHistogram::total        21395                       # delay histogram for all message (Unspecified)
board.cache_hierarchy.ruby_system.m_outstandReqHistSeqr::bucket_size            2                       (Unspecified)
board.cache_hierarchy.ruby_system.m_outstandReqHistSeqr::max_bucket           19                       (Unspecified)
board.cache_hierarchy.ruby_system.m_outstandReqHistSeqr::samples      1102599                       (Unspecified)
board.cache_hierarchy.ruby_system.m_outstandReqHistSeqr::mean     1.174159                       (Unspecified)
board.cache_hierarchy.ruby_system.m_outstandReqHistSeqr::gmean     1.113099                       (Unspecified)
board.cache_hierarchy.ruby_system.m_outstandReqHistSeqr::stdev     0.503071                       (Unspecified)
board.cache_hierarchy.ruby_system.m_outstandReqHistSeqr |      959411     87.01%     87.01% |      139644     12.66%     99.68% |        3154      0.29%     99.96% |         250      0.02%     99.99% |          65      0.01%     99.99% |          30      0.00%    100.00% |          25      0.00%    100.00% |          13      0.00%    100.00% |           7      0.00%    100.00% |           0      0.00%    100.00% (Unspecified)
board.cache_hierarchy.ruby_system.m_outstandReqHistSeqr::total      1102599                       (Unspecified)
board.cache_hierarchy.ruby_system.m_latencyHistSeqr::bucket_size          256                       (Unspecified)
board.cache_hierarchy.ruby_system.m_latencyHistSeqr::max_bucket         2559                       (Unspecified)
board.cache_hierarchy.ruby_system.m_latencyHistSeqr::samples      1102952                       (Unspecified)
board.cache_hierarchy.ruby_system.m_latencyHistSeqr::mean     1.499153                       (Unspecified)
board.cache_hierarchy.ruby_system.m_latencyHistSeqr::gmean     1.026917                       (Unspecified)
board.cache_hierarchy.ruby_system.m_latencyHistSeqr::stdev     8.340791                       (Unspecified)
board.cache_hierarchy.ruby_system.m_latencyHistSeqr |     1102894     99.99%     99.99% |          44      0.00%    100.00% |           4      0.00%    100.00% |           1      0.00%    100.00% |           8      0.00%    100.00% |           1      0.00%    100.00% |           0      0.00%    100.00% |           0      0.00%    100.00% |           0      0.00%    100.00% |           0      0.00%    100.00% (Unspecified)
board.cache_hierarchy.ruby_system.m_latencyHistSeqr::total      1102952                       (Unspecified)
board.cache_hierarchy.ruby_system.m_hitLatencyHistSeqr::bucket_size           32                       (Unspecified)
board.cache_hierarchy.ruby_system.m_hitLatencyHistSeqr::max_bucket          319                       (Unspecified)
board.cache_hierarchy.ruby_system.m_hitLatencyHistSeqr::samples      1096023                       (Unspecified)
board.cache_hierarchy.ruby_system.m_hitLatencyHistSeqr::mean     1.000744                       (Unspecified)
board.cache_hierarchy.ruby_system.m_hitLatencyHistSeqr::gmean     1.000230                       (Unspecified)
board.cache_hierarchy.ruby_system.m_hitLatencyHistSeqr::stdev     0.271530                       (Unspecified)
board.cache_hierarchy.ruby_system.m_hitLatencyHistSeqr |     1096020    100.00%    100.00% |           0      0.00%    100.00% |           0      0.00%    100.00% |           1      0.00%    100.00% |           0      0.00%    100.00% |           2      0.00%    100.00% |           0      0.00%    100.00% |           0      0.00%    100.00% |           0      0.00%    100.00% |           0      0.00%    100.00% (Unspecified)
board.cache_hierarchy.ruby_system.m_hitLatencyHistSeqr::total      1096023                       (Unspecified)
board.cache_hierarchy.ruby_system.m_missLatencyHistSeqr::bucket_size          256                       (Unspecified)
board.cache_hierarchy.ruby_system.m_missLatencyHistSeqr::max_bucket         2559                       (Unspecified)
board.cache_hierarchy.ruby_system.m_missLatencyHistSeqr::samples         6929                       (Unspecified)
board.cache_hierarchy.ruby_system.m_missLatencyHistSeqr::mean    80.337134                       (Unspecified)
board.cache_hierarchy.ruby_system.m_missLatencyHistSeqr::gmean    66.130805                       (Unspecified)
board.cache_hierarchy.ruby_system.m_missLatencyHistSeqr::stdev    69.341178                       (Unspecified)
board.cache_hierarchy.ruby_system.m_missLatencyHistSeqr |        6871     99.16%     99.16% |          44      0.64%     99.80% |           4      0.06%     99.86% |           1      0.01%     99.87% |           8      0.12%     99.99% |           1      0.01%    100.00% |           0      0.00%    100.00% |           0      0.00%    100.00% |           0      0.00%    100.00% |           0      0.00%    100.00% (Unspecified)
board.cache_hierarchy.ruby_system.m_missLatencyHistSeqr::total         6929                       (Unspecified)
board.cache_hierarchy.ruby_system.delayVCHist.vnet_0::bucket_size           16                       # delay histogram for vnet_0 (Unspecified)
board.cache_hierarchy.ruby_system.delayVCHist.vnet_0::max_bucket          159                       # delay histogram for vnet_0 (Unspecified)
board.cache_hierarchy.ruby_system.delayVCHist.vnet_0::samples        11028                       # delay histogram for vnet_0 (Unspecified)
board.cache_hierarchy.ruby_system.delayVCHist.vnet_0::mean     0.317193                       # delay histogram for vnet_0 (Unspecified)
board.cache_hierarchy.ruby_system.delayVCHist.vnet_0::stdev     1.835051                       # delay histogram for vnet_0 (Unspecified)
board.cache_hierarchy.ruby_system.delayVCHist.vnet_0 |       11021     99.94%     99.94% |           4      0.04%     99.97% |           2      0.02%     99.99% |           0      0.00%     99.99% |           0      0.00%     99.99% |           1      0.01%    100.00% |           0      0.00%    100.00% |           0      0.00%    100.00% |           0      0.00%    100.00% |           0      0.00%    100.00% # delay histogram for vnet_0 (Unspecified)
board.cache_hierarchy.ruby_system.delayVCHist.vnet_0::total        11028                       # delay histogram for vnet_0 (Unspecified)
board.cache_hierarchy.ruby_system.delayVCHist.vnet_1::bucket_size            2                       # delay histogram for vnet_1 (Unspecified)
board.cache_hierarchy.ruby_system.delayVCHist.vnet_1::max_bucket           19                       # delay histogram for vnet_1 (Unspecified)
board.cache_hierarchy.ruby_system.delayVCHist.vnet_1::samples         9266                       # delay histogram for vnet_1 (Unspecified)
board.cache_hierarchy.ruby_system.delayVCHist.vnet_1::mean     0.524282                       # delay histogram for vnet_1 (Unspecified)
board.cache_hierarchy.ruby_system.delayVCHist.vnet_1::stdev     2.036076                       # delay histogram for vnet_1 (Unspecified)
board.cache_hierarchy.ruby_system.delayVCHist.vnet_1 |        8533     92.09%     92.09% |         108      1.17%     93.25% |         176      1.90%     95.15% |          43      0.46%     95.62% |         336      3.63%     99.24% |          16      0.17%     99.42% |          12      0.13%     99.55% |           4      0.04%     99.59% |          26      0.28%     99.87% |          12      0.13%    100.00% # delay histogram for vnet_1 (Unspecified)
board.cache_hierarchy.ruby_system.delayVCHist.vnet_1::total         9266                       # delay histogram for vnet_1 (Unspecified)
board.cache_hierarchy.ruby_system.delayVCHist.vnet_2::bucket_size            1                       # delay histogram for vnet_2 (Unspecified)
board.cache_hierarchy.ruby_system.delayVCHist.vnet_2::max_bucket            9                       # delay histogram for vnet_2 (Unspecified)
board.cache_hierarchy.ruby_system.delayVCHist.vnet_2::samples         1101                       # delay histogram for vnet_2 (Unspecified)
board.cache_hierarchy.ruby_system.delayVCHist.vnet_2 |        1101    100.00%    100.00% |           0      0.00%    100.00% |           0      0.00%    100.00% |           0      0.00%    100.00% |           0      0.00%    100.00% |           0      0.00%    100.00% |           0      0.00%    100.00% |           0      0.00%    100.00% |           0      0.00%    100.00% |           0      0.00%    100.00% # delay histogram for vnet_2 (Unspecified)
board.cache_hierarchy.ruby_system.delayVCHist.vnet_2::total         1101                       # delay histogram for vnet_2 (Unspecified)
board.cache_hierarchy.ruby_system.Directory_Controller.Fetch         1101      0.00%      0.00% (Unspecified)
board.cache_hierarchy.ruby_system.Directory_Controller.Memory_Data         1101      0.00%      0.00% (Unspecified)
board.cache_hierarchy.ruby_system.Directory_Controller.I.Fetch         1101      0.00%      0.00% (Unspecified)
board.cache_hierarchy.ruby_system.Directory_Controller.IM.Memory_Data         1101      0.00%      0.00% (Unspecified)
board.cache_hierarchy.ruby_system.L1Cache_Controller.Load |       13371      3.49%      3.49% |       23112      6.04%      9.53% |       23095      6.04%     15.57% |       23097      6.04%     21.60% |       23083      6.03%     27.64% |       23089      6.03%     33.67% |       23075      6.03%     39.70% |       23069      6.03%     45.73% |       23074      6.03%     51.76% |       23090      6.03%     57.79% |       23072      6.03%     63.82% |       23070      6.03%     69.85% |       23072      6.03%     75.88% |       23075      6.03%     81.91% |       23079      6.03%     87.94% |       23080      6.03%     93.97% |       23072      6.03%    100.00% (Unspecified)
board.cache_hierarchy.ruby_system.L1Cache_Controller.Load::total       382675                       (Unspecified)
board.cache_hierarchy.ruby_system.L1Cache_Controller.Ifetch |       20812      4.87%      4.87% |       25381      5.94%     10.82% |       25446      5.96%     16.77% |       25485      5.97%     22.74% |       25401      5.95%     28.69% |       25396      5.95%     34.64% |       25372      5.94%     40.58% |       25368      5.94%     46.52% |       25366      5.94%     52.46% |       25399      5.95%     58.41% |       25374      5.94%     64.35% |       25372      5.94%     70.29% |       25390      5.95%     76.23% |       25366      5.94%     82.17% |       25368      5.94%     88.11% |       25396      5.95%     94.06% |       25367      5.94%    100.00% (Unspecified)
board.cache_hierarchy.ruby_system.L1Cache_Controller.Ifetch::total       427059                       (Unspecified)
board.cache_hierarchy.ruby_system.L1Cache_Controller.Store |       22865      7.80%      7.80% |       17138      5.84%     13.64% |       17134      5.84%     19.49% |       17134      5.84%     25.33% |       16842      5.74%     31.07% |       16842      5.74%     36.82% |       16842      5.74%     42.56% |       16842      5.74%     48.31% |       16842      5.74%     54.05% |       16842      5.74%     59.79% |       16842      5.74%     65.54% |       16842      5.74%     71.28% |       16842      5.74%     77.02% |       16842      5.74%     82.77% |       16842      5.74%     88.51% |       16842      5.74%     94.26% |       16842      5.74%    100.00% (Unspecified)
board.cache_hierarchy.ruby_system.L1Cache_Controller.Store::total       293217                       (Unspecified)
board.cache_hierarchy.ruby_system.L1Cache_Controller.Inv |          92     36.80%     36.80% |          14      5.60%     42.40% |           6      2.40%     44.80% |          10      4.00%     48.80% |           9      3.60%     52.40% |          11      4.40%     56.80% |           9      3.60%     60.40% |          10      4.00%     64.40% |          10      4.00%     68.40% |          12      4.80%     73.20% |          12      4.80%     78.00% |          12      4.80%     82.80% |          12      4.80%     87.60% |          11      4.40%     92.00% |          10      4.00%     96.00% |           9      3.60%     99.60% |           1      0.40%    100.00% (Unspecified)
board.cache_hierarchy.ruby_system.L1Cache_Controller.Inv::total          250                       (Unspecified)
board.cache_hierarchy.ruby_system.L1Cache_Controller.L1_Replacement |         860     99.54%     99.54% |           0      0.00%     99.54% |           0      0.00%     99.54% |           0      0.00%     99.54% |           0      0.00%     99.54% |           2      0.23%     99.77% |           0      0.00%     99.77% |           0      0.00%     99.77% |           0      0.00%     99.77% |           2      0.23%    100.00% |           0      0.00%    100.00% |           0      0.00%    100.00% |           0      0.00%    100.00% |           0      0.00%    100.00% |           0      0.00%    100.00% |           0      0.00%    100.00% |           0      0.00%    100.00% (Unspecified)
board.cache_hierarchy.ruby_system.L1Cache_Controller.L1_Replacement::total          864                       (Unspecified)
board.cache_hierarchy.ruby_system.L1Cache_Controller.Fwd_GETX |          44     19.38%     19.38% |          15      6.61%     25.99% |           3      1.32%     27.31% |           1      0.44%     27.75% |          15      6.61%     34.36% |          14      6.17%     40.53% |          13      5.73%     46.26% |          13      5.73%     51.98% |          13      5.73%     57.71% |          13      5.73%     63.44% |          13      5.73%     69.16% |          13      5.73%     74.89% |          13      5.73%     80.62% |          14      6.17%     86.78% |          14      6.17%     92.95% |          14      6.17%     99.12% |           2      0.88%    100.00% (Unspecified)
board.cache_hierarchy.ruby_system.L1Cache_Controller.Fwd_GETX::total          227                       (Unspecified)
board.cache_hierarchy.ruby_system.L1Cache_Controller.Fwd_GETS |         404     64.74%     64.74% |          22      3.53%     68.27% |          10      1.60%     69.87% |          13      2.08%     71.96% |          12      1.92%     73.88% |          14      2.24%     76.12% |          16      2.56%     78.69% |          15      2.40%     81.09% |          15      2.40%     83.49% |          14      2.24%     85.74% |          14      2.24%     87.98% |          15      2.40%     90.38% |          14      2.24%     92.63% |          14      2.24%     94.87% |          13      2.08%     96.96% |          13      2.08%     99.04% |           6      0.96%    100.00% (Unspecified)
board.cache_hierarchy.ruby_system.L1Cache_Controller.Fwd_GETS::total          624                       (Unspecified)
board.cache_hierarchy.ruby_system.L1Cache_Controller.Data_Exclusive |          55      2.84%      2.84% |         140      7.24%     10.08% |         132      6.82%     16.90% |         132      6.82%     23.72% |         132      6.82%     30.54% |         132      6.82%     37.36% |         134      6.93%     44.29% |         133      6.87%     51.16% |         133      6.87%     58.04% |         132      6.82%     64.86% |         133      6.87%     71.73% |         133      6.87%     78.60% |         132      6.82%     85.43% |         126      6.51%     91.94% |          76      3.93%     95.87% |          38      1.96%     97.83% |          42      2.17%    100.00% (Unspecified)
board.cache_hierarchy.ruby_system.L1Cache_Controller.Data_Exclusive::total         1935                       (Unspecified)
board.cache_hierarchy.ruby_system.L1Cache_Controller.DataS_fromL1 |          81     12.98%     12.98% |          20      3.21%     16.19% |          20      3.21%     19.39% |          15      2.40%     21.79% |          18      2.88%     24.68% |          19      3.04%     27.72% |          17      2.72%     30.45% |          19      3.04%     33.49% |          19      3.04%     36.54% |          17      2.72%     39.26% |          18      2.88%     42.15% |          19      3.04%     45.19% |          18      2.88%     48.08% |          24      3.85%     51.92% |          74     11.86%     63.78% |         115     18.43%     82.21% |         111     17.79%    100.00% (Unspecified)
board.cache_hierarchy.ruby_system.L1Cache_Controller.DataS_fromL1::total          624                       (Unspecified)
board.cache_hierarchy.ruby_system.L1Cache_Controller.Data_all_Acks |         772     18.67%     18.67% |         246      5.95%     24.61% |         253      6.12%     30.73% |         262      6.33%     37.06% |         200      4.84%     41.90% |         206      4.98%     46.88% |         200      4.84%     51.72% |         199      4.81%     56.53% |         199      4.81%     61.34% |         206      4.98%     66.32% |         199      4.81%     71.13% |         198      4.79%     75.92% |         198      4.79%     80.71% |         202      4.88%     85.59% |         200      4.84%     90.43% |         199      4.81%     95.24% |         197      4.76%    100.00% (Unspecified)
board.cache_hierarchy.ruby_system.L1Cache_Controller.Data_all_Acks::total         4136                       (Unspecified)
board.cache_hierarchy.ruby_system.L1Cache_Controller.Ack |          42     16.80%     16.80% |          10      4.00%     20.80% |          11      4.40%     25.20% |          10      4.00%     29.20% |          14      5.60%     34.80% |          14      5.60%     40.40% |          15      6.00%     46.40% |          14      5.60%     52.00% |          14      5.60%     57.60% |          13      5.20%     62.80% |          14      5.60%     68.40% |          14      5.60%     74.00% |          13      5.20%     79.20% |          12      4.80%     84.00% |          12      4.80%     88.80% |          13      5.20%     94.00% |          15      6.00%    100.00% (Unspecified)
board.cache_hierarchy.ruby_system.L1Cache_Controller.Ack::total          250                       (Unspecified)
board.cache_hierarchy.ruby_system.L1Cache_Controller.Ack_all |          37     15.81%     15.81% |           9      3.85%     19.66% |           9      3.85%     23.50% |           9      3.85%     27.35% |          13      5.56%     32.91% |          13      5.56%     38.46% |          14      5.98%     44.44% |          14      5.98%     50.43% |          14      5.98%     56.41% |          12      5.13%     61.54% |          13      5.56%     67.09% |          14      5.98%     73.08% |          12      5.13%     78.21% |          12      5.13%     83.33% |          12      5.13%     88.46% |          13      5.56%     94.02% |          14      5.98%    100.00% (Unspecified)
board.cache_hierarchy.ruby_system.L1Cache_Controller.Ack_all::total          234                       (Unspecified)
board.cache_hierarchy.ruby_system.L1Cache_Controller.WB_Ack |         362    100.00%    100.00% |           0      0.00%    100.00% |           0      0.00%    100.00% |           0      0.00%    100.00% |           0      0.00%    100.00% |           0      0.00%    100.00% |           0      0.00%    100.00% |           0      0.00%    100.00% |           0      0.00%    100.00% |           0      0.00%    100.00% |           0      0.00%    100.00% |           0      0.00%    100.00% |           0      0.00%    100.00% |           0      0.00%    100.00% |           0      0.00%    100.00% |           0      0.00%    100.00% |           0      0.00%    100.00% (Unspecified)
board.cache_hierarchy.ruby_system.L1Cache_Controller.WB_Ack::total          362                       (Unspecified)
board.cache_hierarchy.ruby_system.L1Cache_Controller.NP.Load |         127      4.67%      4.67% |         157      5.77%     10.44% |         158      5.81%     16.25% |         158      5.81%     22.06% |         162      5.96%     28.01% |         163      5.99%     34.01% |         163      5.99%     40.00% |         163      5.99%     45.99% |         163      5.99%     51.99% |         163      5.99%     57.98% |         163      5.99%     63.97% |         163      5.99%     69.96% |         162      5.96%     75.92% |         163      5.99%     81.91% |         163      5.99%     87.90% |         165      6.07%     93.97% |         164      6.03%    100.00% (Unspecified)
board.cache_hierarchy.ruby_system.L1Cache_Controller.NP.Load::total         2720                       (Unspecified)
board.cache_hierarchy.ruby_system.L1Cache_Controller.NP.Ifetch |         338     11.38%     11.38% |         182      6.13%     17.51% |         184      6.20%     23.71% |         185      6.23%     29.94% |         160      5.39%     35.33% |         164      5.52%     40.86% |         160      5.39%     46.24% |         160      5.39%     51.63% |         160      5.39%     57.02% |         163      5.49%     62.51% |         159      5.36%     67.87% |         159      5.36%     73.22% |         158      5.32%     78.54% |         160      5.39%     83.93% |         159      5.36%     89.29% |         159      5.36%     94.64% |         159      5.36%    100.00% (Unspecified)
board.cache_hierarchy.ruby_system.L1Cache_Controller.NP.Ifetch::total         2969                       (Unspecified)
board.cache_hierarchy.ruby_system.L1Cache_Controller.NP.Store |         395     42.66%     42.66% |          61      6.59%     49.24% |          61      6.59%     55.83% |          61      6.59%     62.42% |          27      2.92%     65.33% |          27      2.92%     68.25% |          27      2.92%     71.17% |          27      2.92%     74.08% |          27      2.92%     77.00% |          27      2.92%     79.91% |          27      2.92%     82.83% |          27      2.92%     85.75% |          27      2.92%     88.66% |          27      2.92%     91.58% |          26      2.81%     94.38% |          26      2.81%     97.19% |          26      2.81%    100.00% (Unspecified)
board.cache_hierarchy.ruby_system.L1Cache_Controller.NP.Store::total          926                       (Unspecified)
board.cache_hierarchy.ruby_system.L1Cache_Controller.NP.Inv |          10    100.00%    100.00% |           0      0.00%    100.00% |           0      0.00%    100.00% |           0      0.00%    100.00% |           0      0.00%    100.00% |           0      0.00%    100.00% |           0      0.00%    100.00% |           0      0.00%    100.00% |           0      0.00%    100.00% |           0      0.00%    100.00% |           0      0.00%    100.00% |           0      0.00%    100.00% |           0      0.00%    100.00% |           0      0.00%    100.00% |           0      0.00%    100.00% |           0      0.00%    100.00% |           0      0.00%    100.00% (Unspecified)
board.cache_hierarchy.ruby_system.L1Cache_Controller.NP.Inv::total           10                       (Unspecified)
board.cache_hierarchy.ruby_system.L1Cache_Controller.I.Load |          42     68.85%     68.85% |           4      6.56%     75.41% |           1      1.64%     77.05% |           3      4.92%     81.97% |           1      1.64%     83.61% |           2      3.28%     86.89% |           1      1.64%     88.52% |           1      1.64%     90.16% |           1      1.64%     91.80% |           1      1.64%     93.44% |           1      1.64%     95.08% |           1      1.64%     96.72% |           0      0.00%     96.72% |           0      0.00%     96.72% |           0      0.00%     96.72% |           1      1.64%     98.36% |           1      1.64%    100.00% (Unspecified)
board.cache_hierarchy.ruby_system.L1Cache_Controller.I.Load::total           61                       (Unspecified)
board.cache_hierarchy.ruby_system.L1Cache_Controller.I.Store |           5     29.41%     29.41% |           1      5.88%     35.29% |           1      5.88%     41.18% |           2     11.76%     52.94% |           0      0.00%     52.94% |           1      5.88%     58.82% |           0      0.00%     58.82% |           0      0.00%     58.82% |           0      0.00%     58.82% |           1      5.88%     64.71% |           0      0.00%     64.71% |           0      0.00%     64.71% |           1      5.88%     70.59% |           2     11.76%     82.35% |           2     11.76%     94.12% |           1      5.88%    100.00% |           0      0.00%    100.00% (Unspecified)
board.cache_hierarchy.ruby_system.L1Cache_Controller.I.Store::total           17                       (Unspecified)
board.cache_hierarchy.ruby_system.L1Cache_Controller.I.L1_Replacement |          57    100.00%    100.00% |           0      0.00%    100.00% |           0      0.00%    100.00% |           0      0.00%    100.00% |           0      0.00%    100.00% |           0      0.00%    100.00% |           0      0.00%    100.00% |           0      0.00%    100.00% |           0      0.00%    100.00% |           0      0.00%    100.00% |           0      0.00%    100.00% |           0      0.00%    100.00% |           0      0.00%    100.00% |           0      0.00%    100.00% |           0      0.00%    100.00% |           0      0.00%    100.00% |           0      0.00%    100.00% (Unspecified)
board.cache_hierarchy.ruby_system.L1Cache_Controller.I.L1_Replacement::total           57                       (Unspecified)
board.cache_hierarchy.ruby_system.L1Cache_Controller.S.Load |         458      8.34%      8.34% |          73      1.33%      9.67% |          92      1.68%     11.34% |          84      1.53%     12.87% |          84      1.53%     14.40% |          98      1.78%     16.19% |          70      1.27%     17.46% |          85      1.55%     19.01% |          92      1.68%     20.68% |          75      1.37%     22.05% |          74      1.35%     23.40% |          86      1.57%     24.96% |          68      1.24%     26.20% |         174      3.17%     29.37% |         938     17.08%     46.45% |        1513     27.55%     74.00% |        1428     26.00%    100.00% (Unspecified)
board.cache_hierarchy.ruby_system.L1Cache_Controller.S.Load::total         5492                       (Unspecified)
board.cache_hierarchy.ruby_system.L1Cache_Controller.S.Ifetch |       20474      4.83%      4.83% |       25199      5.94%     10.77% |       25262      5.96%     16.73% |       25300      5.97%     22.69% |       25241      5.95%     28.64% |       25232      5.95%     34.59% |       25212      5.94%     40.54% |       25208      5.94%     46.48% |       25206      5.94%     52.43% |       25236      5.95%     58.38% |       25215      5.95%     64.32% |       25213      5.95%     70.27% |       25232      5.95%     76.22% |       25206      5.94%     82.16% |       25209      5.94%     88.11% |       25237      5.95%     94.06% |       25208      5.94%    100.00% (Unspecified)
board.cache_hierarchy.ruby_system.L1Cache_Controller.S.Ifetch::total       424090                       (Unspecified)
board.cache_hierarchy.ruby_system.L1Cache_Controller.S.Store |          37     15.74%     15.74% |          10      4.26%     20.00% |           9      3.83%     23.83% |           9      3.83%     27.66% |          13      5.53%     33.19% |          13      5.53%     38.72% |          14      5.96%     44.68% |          14      5.96%     50.64% |          14      5.96%     56.60% |          12      5.11%     61.70% |          13      5.53%     67.23% |          14      5.96%     73.19% |          12      5.11%     78.30% |          12      5.11%     83.40% |          12      5.11%     88.51% |          13      5.53%     94.04% |          14      5.96%    100.00% (Unspecified)
board.cache_hierarchy.ruby_system.L1Cache_Controller.S.Store::total          235                       (Unspecified)
board.cache_hierarchy.ruby_system.L1Cache_Controller.S.Inv |          82     34.31%     34.31% |          13      5.44%     39.75% |           6      2.51%     42.26% |          10      4.18%     46.44% |           9      3.77%     50.21% |          11      4.60%     54.81% |           9      3.77%     58.58% |          10      4.18%     62.76% |          10      4.18%     66.95% |          12      5.02%     71.97% |          12      5.02%     76.99% |          12      5.02%     82.01% |          12      5.02%     87.03% |          11      4.60%     91.63% |          10      4.18%     95.82% |           9      3.77%     99.58% |           1      0.42%    100.00% (Unspecified)
board.cache_hierarchy.ruby_system.L1Cache_Controller.S.Inv::total          239                       (Unspecified)
board.cache_hierarchy.ruby_system.L1Cache_Controller.S.L1_Replacement |         441     99.10%     99.10% |           0      0.00%     99.10% |           0      0.00%     99.10% |           0      0.00%     99.10% |           0      0.00%     99.10% |           2      0.45%     99.55% |           0      0.00%     99.55% |           0      0.00%     99.55% |           0      0.00%     99.55% |           2      0.45%    100.00% |           0      0.00%    100.00% |           0      0.00%    100.00% |           0      0.00%    100.00% |           0      0.00%    100.00% |           0      0.00%    100.00% |           0      0.00%    100.00% |           0      0.00%    100.00% (Unspecified)
board.cache_hierarchy.ruby_system.L1Cache_Controller.S.L1_Replacement::total          445                       (Unspecified)
board.cache_hierarchy.ruby_system.L1Cache_Controller.E.Load |        1363      4.82%      4.82% |        1919      6.78%     11.60% |        1916      6.77%     18.38% |        1916      6.77%     25.15% |        1916      6.77%     31.92% |        1916      6.77%     38.69% |        1920      6.79%     45.48% |        1916      6.77%     52.26% |        1916      6.77%     59.03% |        1916      6.77%     65.80% |        1916      6.77%     72.57% |        1916      6.77%     79.35% |        1916      6.77%     86.12% |        1826      6.46%     92.58% |        1065      3.76%     96.34% |         480      1.70%     98.04% |         555      1.96%    100.00% (Unspecified)
board.cache_hierarchy.ruby_system.L1Cache_Controller.E.Load::total        28288                       (Unspecified)
board.cache_hierarchy.ruby_system.L1Cache_Controller.E.Store |          16     84.21%     84.21% |           0      0.00%     84.21% |           0      0.00%     84.21% |           0      0.00%     84.21% |           0      0.00%     84.21% |           0      0.00%     84.21% |           0      0.00%     84.21% |           0      0.00%     84.21% |           0      0.00%     84.21% |           0      0.00%     84.21% |           0      0.00%     84.21% |           0      0.00%     84.21% |           0      0.00%     84.21% |           0      0.00%     84.21% |           1      5.26%     89.47% |           1      5.26%     94.74% |           1      5.26%    100.00% (Unspecified)
board.cache_hierarchy.ruby_system.L1Cache_Controller.E.Store::total           19                       (Unspecified)
board.cache_hierarchy.ruby_system.L1Cache_Controller.E.L1_Replacement |          12    100.00%    100.00% |           0      0.00%    100.00% |           0      0.00%    100.00% |           0      0.00%    100.00% |           0      0.00%    100.00% |           0      0.00%    100.00% |           0      0.00%    100.00% |           0      0.00%    100.00% |           0      0.00%    100.00% |           0      0.00%    100.00% |           0      0.00%    100.00% |           0      0.00%    100.00% |           0      0.00%    100.00% |           0      0.00%    100.00% |           0      0.00%    100.00% |           0      0.00%    100.00% |           0      0.00%    100.00% (Unspecified)
board.cache_hierarchy.ruby_system.L1Cache_Controller.E.L1_Replacement::total           12                       (Unspecified)
board.cache_hierarchy.ruby_system.L1Cache_Controller.E.Fwd_GETS |           6     13.95%     13.95% |           9     20.93%     34.88% |           2      4.65%     39.53% |           2      4.65%     44.19% |           2      4.65%     48.84% |           2      4.65%     53.49% |           3      6.98%     60.47% |           2      4.65%     65.12% |           2      4.65%     69.77% |           2      4.65%     74.42% |           2      4.65%     79.07% |           2      4.65%     83.72% |           2      4.65%     88.37% |           2      4.65%     93.02% |           1      2.33%     95.35% |           1      2.33%     97.67% |           1      2.33%    100.00% (Unspecified)
board.cache_hierarchy.ruby_system.L1Cache_Controller.E.Fwd_GETS::total           43                       (Unspecified)
board.cache_hierarchy.ruby_system.L1Cache_Controller.M.Load |       11381      3.29%      3.29% |       20959      6.06%      9.34% |       20928      6.05%     15.39% |       20936      6.05%     21.44% |       20920      6.04%     27.48% |       20910      6.04%     33.52% |       20921      6.04%     39.57% |       20904      6.04%     45.61% |       20902      6.04%     51.65% |       20935      6.05%     57.70% |       20918      6.04%     63.74% |       20904      6.04%     69.78% |       20926      6.05%     75.83% |       20912      6.04%     81.87% |       20913      6.04%     87.91% |       20921      6.04%     93.95% |       20924      6.05%    100.00% (Unspecified)
board.cache_hierarchy.ruby_system.L1Cache_Controller.M.Load::total       346114                       (Unspecified)
board.cache_hierarchy.ruby_system.L1Cache_Controller.M.Store |       22412      7.67%      7.67% |       17066      5.84%     13.52% |       17063      5.84%     19.36% |       17062      5.84%     25.20% |       16802      5.75%     30.96% |       16801      5.75%     36.71% |       16801      5.75%     42.47% |       16801      5.75%     48.22% |       16801      5.75%     53.97% |       16802      5.75%     59.73% |       16802      5.75%     65.48% |       16801      5.75%     71.23% |       16802      5.75%     76.99% |       16801      5.75%     82.74% |       16801      5.75%     88.49% |       16801      5.75%     94.25% |       16801      5.75%    100.00% (Unspecified)
board.cache_hierarchy.ruby_system.L1Cache_Controller.M.Store::total       292020                       (Unspecified)
board.cache_hierarchy.ruby_system.L1Cache_Controller.M.L1_Replacement |         350    100.00%    100.00% |           0      0.00%    100.00% |           0      0.00%    100.00% |           0      0.00%    100.00% |           0      0.00%    100.00% |           0      0.00%    100.00% |           0      0.00%    100.00% |           0      0.00%    100.00% |           0      0.00%    100.00% |           0      0.00%    100.00% |           0      0.00%    100.00% |           0      0.00%    100.00% |           0      0.00%    100.00% |           0      0.00%    100.00% |           0      0.00%    100.00% |           0      0.00%    100.00% |           0      0.00%    100.00% (Unspecified)
board.cache_hierarchy.ruby_system.L1Cache_Controller.M.L1_Replacement::total          350                       (Unspecified)
board.cache_hierarchy.ruby_system.L1Cache_Controller.M.Fwd_GETX |          44     19.38%     19.38% |          15      6.61%     25.99% |           3      1.32%     27.31% |           1      0.44%     27.75% |          15      6.61%     34.36% |          14      6.17%     40.53% |          13      5.73%     46.26% |          13      5.73%     51.98% |          13      5.73%     57.71% |          13      5.73%     63.44% |          13      5.73%     69.16% |          13      5.73%     74.89% |          13      5.73%     80.62% |          14      6.17%     86.78% |          14      6.17%     92.95% |          14      6.17%     99.12% |           2      0.88%    100.00% (Unspecified)
board.cache_hierarchy.ruby_system.L1Cache_Controller.M.Fwd_GETX::total          227                       (Unspecified)
board.cache_hierarchy.ruby_system.L1Cache_Controller.M.Fwd_GETS |         398     68.50%     68.50% |          13      2.24%     70.74% |           8      1.38%     72.12% |          11      1.89%     74.01% |          10      1.72%     75.73% |          12      2.07%     77.80% |          13      2.24%     80.03% |          13      2.24%     82.27% |          13      2.24%     84.51% |          12      2.07%     86.57% |          12      2.07%     88.64% |          13      2.24%     90.88% |          12      2.07%     92.94% |          12      2.07%     95.01% |          12      2.07%     97.07% |          12      2.07%     99.14% |           5      0.86%    100.00% (Unspecified)
board.cache_hierarchy.ruby_system.L1Cache_Controller.M.Fwd_GETS::total          581                       (Unspecified)
board.cache_hierarchy.ruby_system.L1Cache_Controller.IS.Data_Exclusive |          55      2.84%      2.84% |         140      7.24%     10.08% |         132      6.82%     16.90% |         132      6.82%     23.72% |         132      6.82%     30.54% |         132      6.82%     37.36% |         134      6.93%     44.29% |         133      6.87%     51.16% |         133      6.87%     58.04% |         132      6.82%     64.86% |         133      6.87%     71.73% |         133      6.87%     78.60% |         132      6.82%     85.43% |         126      6.51%     91.94% |          76      3.93%     95.87% |          38      1.96%     97.83% |          42      2.17%    100.00% (Unspecified)
board.cache_hierarchy.ruby_system.L1Cache_Controller.IS.Data_Exclusive::total         1935                       (Unspecified)
board.cache_hierarchy.ruby_system.L1Cache_Controller.IS.DataS_fromL1 |          81     12.98%     12.98% |          20      3.21%     16.19% |          20      3.21%     19.39% |          15      2.40%     21.79% |          18      2.88%     24.68% |          19      3.04%     27.72% |          17      2.72%     30.45% |          19      3.04%     33.49% |          19      3.04%     36.54% |          17      2.72%     39.26% |          18      2.88%     42.15% |          19      3.04%     45.19% |          18      2.88%     48.08% |          24      3.85%     51.92% |          74     11.86%     63.78% |         115     18.43%     82.21% |         111     17.79%    100.00% (Unspecified)
board.cache_hierarchy.ruby_system.L1Cache_Controller.IS.DataS_fromL1::total          624                       (Unspecified)
board.cache_hierarchy.ruby_system.L1Cache_Controller.IS.Data_all_Acks |         372     11.65%     11.65% |         183      5.73%     17.39% |         191      5.98%     23.37% |         199      6.23%     29.61% |         173      5.42%     35.03% |         178      5.58%     40.60% |         173      5.42%     46.02% |         172      5.39%     51.41% |         172      5.39%     56.80% |         178      5.58%     62.37% |         172      5.39%     67.76% |         171      5.36%     73.12% |         170      5.33%     78.45% |         173      5.42%     83.87% |         172      5.39%     89.25% |         172      5.39%     94.64% |         171      5.36%    100.00% (Unspecified)
board.cache_hierarchy.ruby_system.L1Cache_Controller.IS.Data_all_Acks::total         3192                       (Unspecified)
board.cache_hierarchy.ruby_system.L1Cache_Controller.IM.Data_all_Acks |         400     42.37%     42.37% |          63      6.67%     49.05% |          62      6.57%     55.61% |          63      6.67%     62.29% |          27      2.86%     65.15% |          28      2.97%     68.11% |          27      2.86%     70.97% |          27      2.86%     73.83% |          27      2.86%     76.69% |          28      2.97%     79.66% |          27      2.86%     82.52% |          27      2.86%     85.38% |          28      2.97%     88.35% |          29      3.07%     91.42% |          28      2.97%     94.39% |          27      2.86%     97.25% |          26      2.75%    100.00% (Unspecified)
board.cache_hierarchy.ruby_system.L1Cache_Controller.IM.Data_all_Acks::total          944                       (Unspecified)
board.cache_hierarchy.ruby_system.L1Cache_Controller.SM.Inv |           0      0.00%      0.00% |           1    100.00%    100.00% |           0      0.00%    100.00% |           0      0.00%    100.00% |           0      0.00%    100.00% |           0      0.00%    100.00% |           0      0.00%    100.00% |           0      0.00%    100.00% |           0      0.00%    100.00% |           0      0.00%    100.00% |           0      0.00%    100.00% |           0      0.00%    100.00% |           0      0.00%    100.00% |           0      0.00%    100.00% |           0      0.00%    100.00% |           0      0.00%    100.00% |           0      0.00%    100.00% (Unspecified)
board.cache_hierarchy.ruby_system.L1Cache_Controller.SM.Inv::total            1                       (Unspecified)
board.cache_hierarchy.ruby_system.L1Cache_Controller.SM.Ack |          42     16.80%     16.80% |          10      4.00%     20.80% |          11      4.40%     25.20% |          10      4.00%     29.20% |          14      5.60%     34.80% |          14      5.60%     40.40% |          15      6.00%     46.40% |          14      5.60%     52.00% |          14      5.60%     57.60% |          13      5.20%     62.80% |          14      5.60%     68.40% |          14      5.60%     74.00% |          13      5.20%     79.20% |          12      4.80%     84.00% |          12      4.80%     88.80% |          13      5.20%     94.00% |          15      6.00%    100.00% (Unspecified)
board.cache_hierarchy.ruby_system.L1Cache_Controller.SM.Ack::total          250                       (Unspecified)
board.cache_hierarchy.ruby_system.L1Cache_Controller.SM.Ack_all |          37     15.81%     15.81% |           9      3.85%     19.66% |           9      3.85%     23.50% |           9      3.85%     27.35% |          13      5.56%     32.91% |          13      5.56%     38.46% |          14      5.98%     44.44% |          14      5.98%     50.43% |          14      5.98%     56.41% |          12      5.13%     61.54% |          13      5.56%     67.09% |          14      5.98%     73.08% |          12      5.13%     78.21% |          12      5.13%     83.33% |          12      5.13%     88.46% |          13      5.56%     94.02% |          14      5.98%    100.00% (Unspecified)
board.cache_hierarchy.ruby_system.L1Cache_Controller.SM.Ack_all::total          234                       (Unspecified)
board.cache_hierarchy.ruby_system.L1Cache_Controller.M_I.WB_Ack |         362    100.00%    100.00% |           0      0.00%    100.00% |           0      0.00%    100.00% |           0      0.00%    100.00% |           0      0.00%    100.00% |           0      0.00%    100.00% |           0      0.00%    100.00% |           0      0.00%    100.00% |           0      0.00%    100.00% |           0      0.00%    100.00% |           0      0.00%    100.00% |           0      0.00%    100.00% |           0      0.00%    100.00% |           0      0.00%    100.00% |           0      0.00%    100.00% |           0      0.00%    100.00% |           0      0.00%    100.00% (Unspecified)
board.cache_hierarchy.ruby_system.L1Cache_Controller.M_I.WB_Ack::total          362                       (Unspecified)
board.cache_hierarchy.ruby_system.L2Cache_Controller.L1_GET_INSTR |         130      4.38%      4.38% |         175      5.89%     10.27% |         234      7.88%     18.15% |         258      8.69%     26.84% |         230      7.74%     34.58% |         179      6.03%     40.61% |         201      6.77%     47.37% |         150      5.05%     52.42% |         198      6.67%     59.09% |         200      6.73%     65.82% |         188      6.33%     72.15% |         192      6.46%     78.62% |         199      6.70%     85.32% |         177      5.96%     91.28% |         152      5.12%     96.40% |         107      3.60%    100.00% (Unspecified)
board.cache_hierarchy.ruby_system.L2Cache_Controller.L1_GET_INSTR::total         2970                       (Unspecified)
board.cache_hierarchy.ruby_system.L2Cache_Controller.L1_GETS |         148      5.31%      5.31% |         214      7.68%     13.00% |         198      7.11%     20.11% |         203      7.29%     27.40% |         183      6.57%     33.97% |         184      6.61%     40.57% |         171      6.14%     46.71% |         140      5.03%     51.74% |         137      4.92%     56.66% |         187      6.71%     63.38% |         193      6.93%     70.31% |         134      4.81%     75.12% |         166      5.96%     81.08% |         159      5.71%     86.79% |         187      6.71%     93.50% |         181      6.50%    100.00% (Unspecified)
board.cache_hierarchy.ruby_system.L2Cache_Controller.L1_GETS::total         2785                       (Unspecified)
board.cache_hierarchy.ruby_system.L2Cache_Controller.L1_GETX |          46      4.87%      4.87% |          53      5.61%     10.49% |          50      5.30%     15.78% |          51      5.40%     21.19% |          92      9.75%     30.93% |          95     10.06%     41.00% |          76      8.05%     49.05% |          79      8.37%     57.42% |          79      8.37%     65.78% |          46      4.87%     70.66% |          50      5.30%     75.95% |          31      3.28%     79.24% |          63      6.67%     85.91% |          62      6.57%     92.48% |          42      4.45%     96.93% |          29      3.07%    100.00% (Unspecified)
board.cache_hierarchy.ruby_system.L2Cache_Controller.L1_GETX::total          944                       (Unspecified)
board.cache_hierarchy.ruby_system.L2Cache_Controller.L1_UPGRADE |           1      0.43%      0.43% |          63     26.81%     27.23% |          31     13.19%     40.43% |          15      6.38%     46.81% |          15      6.38%     53.19% |          33     14.04%     67.23% |           3      1.28%     68.51% |           5      2.13%     70.64% |           2      0.85%     71.49% |           2      0.85%     72.34% |          29     12.34%     84.68% |           0      0.00%     84.68% |          15      6.38%     91.06% |           3      1.28%     92.34% |          17      7.23%     99.57% |           1      0.43%    100.00% (Unspecified)
board.cache_hierarchy.ruby_system.L2Cache_Controller.L1_UPGRADE::total          235                       (Unspecified)
board.cache_hierarchy.ruby_system.L2Cache_Controller.L1_PUTX |           9      2.49%      2.49% |          20      5.52%      8.01% |          15      4.14%     12.15% |          31      8.56%     20.72% |          47     12.98%     33.70% |          32      8.84%     42.54% |          30      8.29%     50.83% |          15      4.14%     54.97% |          15      4.14%     59.12% |          14      3.87%     62.98% |          31      8.56%     71.55% |          12      3.31%     74.86% |          29      8.01%     82.87% |          39     10.77%     93.65% |          15      4.14%     97.79% |           8      2.21%    100.00% (Unspecified)
board.cache_hierarchy.ruby_system.L2Cache_Controller.L1_PUTX::total          362                       (Unspecified)
board.cache_hierarchy.ruby_system.L2Cache_Controller.Mem_Data |          56      5.09%      5.09% |          73      6.63%     11.72% |          76      6.90%     18.62% |          77      6.99%     25.61% |          90      8.17%     33.79% |          91      8.27%     42.05% |          69      6.27%     48.32% |          66      5.99%     54.31% |          69      6.27%     60.58% |          73      6.63%     67.21% |          55      5.00%     72.21% |          39      3.54%     75.75% |          61      5.54%     81.29% |          74      6.72%     88.01% |          65      5.90%     93.91% |          67      6.09%    100.00% (Unspecified)
board.cache_hierarchy.ruby_system.L2Cache_Controller.Mem_Data::total         1101                       (Unspecified)
board.cache_hierarchy.ruby_system.L2Cache_Controller.WB_Data |          22      3.79%      3.79% |          95     16.35%     20.14% |          65     11.19%     31.33% |          33      5.68%     37.01% |          31      5.34%     42.34% |          59     10.15%     52.50% |          19      3.27%     55.77% |          21      3.61%     59.38% |          19      3.27%     62.65% |          40      6.88%     69.54% |          44      7.57%     77.11% |          19      3.27%     80.38% |          31      5.34%     85.71% |          22      3.79%     89.50% |          35      6.02%     95.52% |          26      4.48%    100.00% (Unspecified)
board.cache_hierarchy.ruby_system.L2Cache_Controller.WB_Data::total          581                       (Unspecified)
board.cache_hierarchy.ruby_system.L2Cache_Controller.WB_Data_clean |          12     27.91%     27.91% |           0      0.00%     27.91% |           1      2.33%     30.23% |          17     39.53%     69.77% |           1      2.33%     72.09% |           1      2.33%     74.42% |           1      2.33%     76.74% |           0      0.00%     76.74% |           0      0.00%     76.74% |           1      2.33%     79.07% |           2      4.65%     83.72% |           0      0.00%     83.72% |           1      2.33%     86.05% |           1      2.33%     88.37% |           3      6.98%     95.35% |           2      4.65%    100.00% (Unspecified)
board.cache_hierarchy.ruby_system.L2Cache_Controller.WB_Data_clean::total           43                       (Unspecified)
board.cache_hierarchy.ruby_system.L2Cache_Controller.Unblock |          34      5.45%      5.45% |          95     15.22%     20.67% |          66     10.58%     31.25% |          50      8.01%     39.26% |          32      5.13%     44.39% |          60      9.62%     54.01% |          20      3.21%     57.21% |          21      3.37%     60.58% |          19      3.04%     63.62% |          41      6.57%     70.19% |          46      7.37%     77.56% |          19      3.04%     80.61% |          32      5.13%     85.74% |          23      3.69%     89.42% |          38      6.09%     95.51% |          28      4.49%    100.00% (Unspecified)
board.cache_hierarchy.ruby_system.L2Cache_Controller.Unblock::total          624                       (Unspecified)
board.cache_hierarchy.ruby_system.L2Cache_Controller.Exclusive_Unblock |         157      5.04%      5.04% |         232      7.45%     12.50% |         196      6.30%     18.79% |         195      6.26%     25.06% |         243      7.81%     32.86% |         252      8.10%     40.96% |         201      6.46%     47.41% |         201      6.46%     53.87% |         199      6.39%     60.26% |         177      5.69%     65.95% |         198      6.36%     72.31% |         145      4.66%     76.97% |         197      6.33%     83.30% |         187      6.01%     89.30% |         178      5.72%     95.02% |         155      4.98%    100.00% (Unspecified)
board.cache_hierarchy.ruby_system.L2Cache_Controller.Exclusive_Unblock::total         3113                       (Unspecified)
board.cache_hierarchy.ruby_system.L2Cache_Controller.NP.L1_GET_INSTR |          25      6.56%      6.56% |          26      6.82%     13.39% |          28      7.35%     20.73% |          29      7.61%     28.35% |          26      6.82%     35.17% |          25      6.56%     41.73% |          19      4.99%     46.72% |          18      4.72%     51.44% |          20      5.25%     56.69% |          25      6.56%     63.25% |          23      6.04%     69.29% |          21      5.51%     74.80% |          27      7.09%     81.89% |          26      6.82%     88.71% |          21      5.51%     94.23% |          22      5.77%    100.00% (Unspecified)
board.cache_hierarchy.ruby_system.L2Cache_Controller.NP.L1_GET_INSTR::total          381                       (Unspecified)
board.cache_hierarchy.ruby_system.L2Cache_Controller.NP.L1_GETS |           0      0.00%      0.00% |           2      3.17%      3.17% |           0      0.00%      3.17% |           0      0.00%      3.17% |          16     25.40%     28.57% |           1      1.59%     30.16% |           2      3.17%     33.33% |           0      0.00%     33.33% |           1      1.59%     34.92% |          17     26.98%     61.90% |           1      1.59%     63.49% |           2      3.17%     66.67% |           1      1.59%     68.25% |           0      0.00%     68.25% |           3      4.76%     73.02% |          17     26.98%    100.00% (Unspecified)
board.cache_hierarchy.ruby_system.L2Cache_Controller.NP.L1_GETS::total           63                       (Unspecified)
board.cache_hierarchy.ruby_system.L2Cache_Controller.NP.L1_GETX |          31      4.72%      4.72% |          45      6.85%     11.57% |          48      7.31%     18.87% |          48      7.31%     26.18% |          48      7.31%     33.49% |          65      9.89%     43.38% |          48      7.31%     50.68% |          48      7.31%     57.99% |          48      7.31%     65.30% |          31      4.72%     70.02% |          31      4.72%     74.73% |          16      2.44%     77.17% |          33      5.02%     82.19% |          48      7.31%     89.50% |          41      6.24%     95.74% |          28      4.26%    100.00% (Unspecified)
board.cache_hierarchy.ruby_system.L2Cache_Controller.NP.L1_GETX::total          657                       (Unspecified)
board.cache_hierarchy.ruby_system.L2Cache_Controller.SS.L1_GET_INSTR |         104      4.04%      4.04% |         148      5.75%      9.79% |         204      7.93%     17.72% |         229      8.90%     26.61% |         204      7.93%     34.54% |         152      5.91%     40.44% |         180      6.99%     47.44% |         131      5.09%     52.53% |         178      6.92%     59.44% |         175      6.80%     66.24% |         165      6.41%     72.65% |         171      6.64%     79.29% |         171      6.64%     85.94% |         150      5.83%     91.76% |         130      5.05%     96.81% |          82      3.19%    100.00% (Unspecified)
board.cache_hierarchy.ruby_system.L2Cache_Controller.SS.L1_GET_INSTR::total         2574                       (Unspecified)
board.cache_hierarchy.ruby_system.L2Cache_Controller.SS.L1_GETS |           4      1.80%      1.80% |           2      0.90%      2.70% |          17      7.66%     10.36% |          24     10.81%     21.17% |          15      6.76%     27.93% |           0      0.00%     27.93% |          29     13.06%     40.99% |           2      0.90%     41.89% |           0      0.00%     41.89% |          17      7.66%     49.55% |          24     10.81%     60.36% |           1      0.45%     60.81% |          15      6.76%     67.57% |          14      6.31%     73.87% |          30     13.51%     87.39% |          28     12.61%    100.00% (Unspecified)
board.cache_hierarchy.ruby_system.L2Cache_Controller.SS.L1_GETS::total          222                       (Unspecified)
board.cache_hierarchy.ruby_system.L2Cache_Controller.SS.L1_UPGRADE |           1      0.43%      0.43% |          63     26.92%     27.35% |          31     13.25%     40.60% |          15      6.41%     47.01% |          15      6.41%     53.42% |          33     14.10%     67.52% |           3      1.28%     68.80% |           5      2.14%     70.94% |           2      0.85%     71.79% |           2      0.85%     72.65% |          28     11.97%     84.62% |           0      0.00%     84.62% |          15      6.41%     91.03% |           3      1.28%     92.31% |          17      7.26%     99.57% |           1      0.43%    100.00% (Unspecified)
board.cache_hierarchy.ruby_system.L2Cache_Controller.SS.L1_UPGRADE::total          234                       (Unspecified)
board.cache_hierarchy.ruby_system.L2Cache_Controller.M.L1_GETS |         110      5.88%      5.88% |         114      6.09%     11.97% |         115      6.14%     18.11% |         129      6.89%     25.00% |         120      6.41%     31.41% |         123      6.57%     37.98% |         120      6.41%     44.39% |         117      6.25%     50.64% |         117      6.25%     56.89% |         112      5.98%     62.87% |         119      6.36%     69.23% |         112      5.98%     75.21% |         118      6.30%     81.52% |         122      6.52%     88.03% |         116      6.20%     94.23% |         108      5.77%    100.00% (Unspecified)
board.cache_hierarchy.ruby_system.L2Cache_Controller.M.L1_GETS::total         1872                       (Unspecified)
board.cache_hierarchy.ruby_system.L2Cache_Controller.M.L1_GETX |           2      3.33%      3.33% |           2      3.33%      6.67% |           2      3.33%     10.00% |           3      5.00%     15.00% |          21     35.00%     50.00% |           1      1.67%     51.67% |           2      3.33%     55.00% |           2      3.33%     58.33% |           2      3.33%     61.67% |           2      3.33%     65.00% |           2      3.33%     68.33% |           2      3.33%     71.67% |          14     23.33%     95.00% |           1      1.67%     96.67% |           1      1.67%     98.33% |           1      1.67%    100.00% (Unspecified)
board.cache_hierarchy.ruby_system.L2Cache_Controller.M.L1_GETX::total           60                       (Unspecified)
board.cache_hierarchy.ruby_system.L2Cache_Controller.MT.L1_GETS |          34      5.45%      5.45% |          95     15.22%     20.67% |          66     10.58%     31.25% |          50      8.01%     39.26% |          32      5.13%     44.39% |          60      9.62%     54.01% |          20      3.21%     57.21% |          21      3.37%     60.58% |          19      3.04%     63.62% |          41      6.57%     70.19% |          46      7.37%     77.56% |          19      3.04%     80.61% |          32      5.13%     85.74% |          23      3.69%     89.42% |          38      6.09%     95.51% |          28      4.49%    100.00% (Unspecified)
board.cache_hierarchy.ruby_system.L2Cache_Controller.MT.L1_GETS::total          624                       (Unspecified)
board.cache_hierarchy.ruby_system.L2Cache_Controller.MT.L1_GETX |          13      5.73%      5.73% |           6      2.64%      8.37% |           0      0.00%      8.37% |           0      0.00%      8.37% |          23     10.13%     18.50% |          29     12.78%     31.28% |          26     11.45%     42.73% |          29     12.78%     55.51% |          29     12.78%     68.28% |          13      5.73%     74.01% |          17      7.49%     81.50% |          13      5.73%     87.22% |          16      7.05%     94.27% |          13      5.73%    100.00% |           0      0.00%    100.00% |           0      0.00%    100.00% (Unspecified)
board.cache_hierarchy.ruby_system.L2Cache_Controller.MT.L1_GETX::total          227                       (Unspecified)
board.cache_hierarchy.ruby_system.L2Cache_Controller.MT.L1_PUTX |           9      2.49%      2.49% |          20      5.52%      8.01% |          15      4.14%     12.15% |          31      8.56%     20.72% |          47     12.98%     33.70% |          32      8.84%     42.54% |          30      8.29%     50.83% |          15      4.14%     54.97% |          15      4.14%     59.12% |          14      3.87%     62.98% |          31      8.56%     71.55% |          12      3.31%     74.86% |          29      8.01%     82.87% |          39     10.77%     93.65% |          15      4.14%     97.79% |           8      2.21%    100.00% (Unspecified)
board.cache_hierarchy.ruby_system.L2Cache_Controller.MT.L1_PUTX::total          362                       (Unspecified)
board.cache_hierarchy.ruby_system.L2Cache_Controller.ISS.Mem_Data |           0      0.00%      0.00% |           2      3.17%      3.17% |           0      0.00%      3.17% |           0      0.00%      3.17% |          16     25.40%     28.57% |           1      1.59%     30.16% |           2      3.17%     33.33% |           0      0.00%     33.33% |           1      1.59%     34.92% |          17     26.98%     61.90% |           1      1.59%     63.49% |           2      3.17%     66.67% |           1      1.59%     68.25% |           0      0.00%     68.25% |           3      4.76%     73.02% |          17     26.98%    100.00% (Unspecified)
board.cache_hierarchy.ruby_system.L2Cache_Controller.ISS.Mem_Data::total           63                       (Unspecified)
board.cache_hierarchy.ruby_system.L2Cache_Controller.IS.L1_GET_INSTR |           1      6.67%      6.67% |           1      6.67%     13.33% |           2     13.33%     26.67% |           0      0.00%     26.67% |           0      0.00%     26.67% |           2     13.33%     40.00% |           2     13.33%     53.33% |           1      6.67%     60.00% |           0      0.00%     60.00% |           0      0.00%     60.00% |           0      0.00%     60.00% |           0      0.00%     60.00% |           1      6.67%     66.67% |           1      6.67%     73.33% |           1      6.67%     80.00% |           3     20.00%    100.00% (Unspecified)
board.cache_hierarchy.ruby_system.L2Cache_Controller.IS.L1_GET_INSTR::total           15                       (Unspecified)
board.cache_hierarchy.ruby_system.L2Cache_Controller.IS.Mem_Data |          25      6.56%      6.56% |          26      6.82%     13.39% |          28      7.35%     20.73% |          29      7.61%     28.35% |          26      6.82%     35.17% |          25      6.56%     41.73% |          19      4.99%     46.72% |          18      4.72%     51.44% |          20      5.25%     56.69% |          25      6.56%     63.25% |          23      6.04%     69.29% |          21      5.51%     74.80% |          27      7.09%     81.89% |          26      6.82%     88.71% |          21      5.51%     94.23% |          22      5.77%    100.00% (Unspecified)
board.cache_hierarchy.ruby_system.L2Cache_Controller.IS.Mem_Data::total          381                       (Unspecified)
board.cache_hierarchy.ruby_system.L2Cache_Controller.IM.Mem_Data |          31      4.72%      4.72% |          45      6.85%     11.57% |          48      7.31%     18.87% |          48      7.31%     26.18% |          48      7.31%     33.49% |          65      9.89%     43.38% |          48      7.31%     50.68% |          48      7.31%     57.99% |          48      7.31%     65.30% |          31      4.72%     70.02% |          31      4.72%     74.73% |          16      2.44%     77.17% |          33      5.02%     82.19% |          48      7.31%     89.50% |          41      6.24%     95.74% |          28      4.26%    100.00% (Unspecified)
board.cache_hierarchy.ruby_system.L2Cache_Controller.IM.Mem_Data::total          657                       (Unspecified)
board.cache_hierarchy.ruby_system.L2Cache_Controller.SS_MB.L1_GETS |           0      0.00%      0.00% |           0      0.00%      0.00% |           0      0.00%      0.00% |           0      0.00%      0.00% |           0      0.00%      0.00% |           0      0.00%      0.00% |           0      0.00%      0.00% |           0      0.00%      0.00% |           0      0.00%      0.00% |           0      0.00%      0.00% |           1    100.00%    100.00% |           0      0.00%    100.00% |           0      0.00%    100.00% |           0      0.00%    100.00% |           0      0.00%    100.00% |           0      0.00%    100.00% (Unspecified)
board.cache_hierarchy.ruby_system.L2Cache_Controller.SS_MB.L1_GETS::total            1                       (Unspecified)
board.cache_hierarchy.ruby_system.L2Cache_Controller.SS_MB.L1_UPGRADE |           0      0.00%      0.00% |           0      0.00%      0.00% |           0      0.00%      0.00% |           0      0.00%      0.00% |           0      0.00%      0.00% |           0      0.00%      0.00% |           0      0.00%      0.00% |           0      0.00%      0.00% |           0      0.00%      0.00% |           0      0.00%      0.00% |           1    100.00%    100.00% |           0      0.00%    100.00% |           0      0.00%    100.00% |           0      0.00%    100.00% |           0      0.00%    100.00% |           0      0.00%    100.00% (Unspecified)
board.cache_hierarchy.ruby_system.L2Cache_Controller.SS_MB.L1_UPGRADE::total            1                       (Unspecified)
board.cache_hierarchy.ruby_system.L2Cache_Controller.SS_MB.Exclusive_Unblock |           1      0.43%      0.43% |          63     26.92%     27.35% |          31     13.25%     40.60% |          15      6.41%     47.01% |          15      6.41%     53.42% |          33     14.10%     67.52% |           3      1.28%     68.80% |           5      2.14%     70.94% |           2      0.85%     71.79% |           2      0.85%     72.65% |          28     11.97%     84.62% |           0      0.00%     84.62% |          15      6.41%     91.03% |           3      1.28%     92.31% |          17      7.26%     99.57% |           1      0.43%    100.00% (Unspecified)
board.cache_hierarchy.ruby_system.L2Cache_Controller.SS_MB.Exclusive_Unblock::total          234                       (Unspecified)
board.cache_hierarchy.ruby_system.L2Cache_Controller.MT_MB.Exclusive_Unblock |         156      5.42%      5.42% |         169      5.87%     11.29% |         165      5.73%     17.02% |         180      6.25%     23.27% |         228      7.92%     31.19% |         219      7.61%     38.80% |         198      6.88%     45.68% |         196      6.81%     52.48% |         197      6.84%     59.33% |         175      6.08%     65.40% |         170      5.90%     71.31% |         145      5.04%     76.35% |         182      6.32%     82.67% |         184      6.39%     89.06% |         161      5.59%     94.65% |         154      5.35%    100.00% (Unspecified)
board.cache_hierarchy.ruby_system.L2Cache_Controller.MT_MB.Exclusive_Unblock::total         2879                       (Unspecified)
board.cache_hierarchy.ruby_system.L2Cache_Controller.MT_IIB.L1_GETS |           0      0.00%      0.00% |           1     50.00%     50.00% |           0      0.00%     50.00% |           0      0.00%     50.00% |           0      0.00%     50.00% |           0      0.00%     50.00% |           0      0.00%     50.00% |           0      0.00%     50.00% |           0      0.00%     50.00% |           0      0.00%     50.00% |           1     50.00%    100.00% |           0      0.00%    100.00% |           0      0.00%    100.00% |           0      0.00%    100.00% |           0      0.00%    100.00% |           0      0.00%    100.00% (Unspecified)
board.cache_hierarchy.ruby_system.L2Cache_Controller.MT_IIB.L1_GETS::total            2                       (Unspecified)
board.cache_hierarchy.ruby_system.L2Cache_Controller.MT_IIB.WB_Data |          22      4.11%      4.11% |          65     12.15%     16.26% |          65     12.15%     28.41% |          33      6.17%     34.58% |          30      5.61%     40.19% |          59     11.03%     51.21% |          19      3.55%     54.77% |          20      3.74%     58.50% |          19      3.55%     62.06% |          40      7.48%     69.53% |          31      5.79%     75.33% |          19      3.55%     78.88% |          31      5.79%     84.67% |          22      4.11%     88.79% |          35      6.54%     95.33% |          25      4.67%    100.00% (Unspecified)
board.cache_hierarchy.ruby_system.L2Cache_Controller.MT_IIB.WB_Data::total          535                       (Unspecified)
board.cache_hierarchy.ruby_system.L2Cache_Controller.MT_IIB.WB_Data_clean |          12     44.44%     44.44% |           0      0.00%     44.44% |           1      3.70%     48.15% |           2      7.41%     55.56% |           1      3.70%     59.26% |           1      3.70%     62.96% |           1      3.70%     66.67% |           0      0.00%     66.67% |           0      0.00%     66.67% |           1      3.70%     70.37% |           2      7.41%     77.78% |           0      0.00%     77.78% |           1      3.70%     81.48% |           1      3.70%     85.19% |           2      7.41%     92.59% |           2      7.41%    100.00% (Unspecified)
board.cache_hierarchy.ruby_system.L2Cache_Controller.MT_IIB.WB_Data_clean::total           27                       (Unspecified)
board.cache_hierarchy.ruby_system.L2Cache_Controller.MT_IIB.Unblock |           0      0.00%      0.00% |          30     48.39%     48.39% |           0      0.00%     48.39% |          15     24.19%     72.58% |           1      1.61%     74.19% |           0      0.00%     74.19% |           0      0.00%     74.19% |           1      1.61%     75.81% |           0      0.00%     75.81% |           0      0.00%     75.81% |          13     20.97%     96.77% |           0      0.00%     96.77% |           0      0.00%     96.77% |           0      0.00%     96.77% |           1      1.61%     98.39% |           1      1.61%    100.00% (Unspecified)
board.cache_hierarchy.ruby_system.L2Cache_Controller.MT_IIB.Unblock::total           62                       (Unspecified)
board.cache_hierarchy.ruby_system.L2Cache_Controller.MT_IB.WB_Data |           0      0.00%      0.00% |          30     65.22%     65.22% |           0      0.00%     65.22% |           0      0.00%     65.22% |           1      2.17%     67.39% |           0      0.00%     67.39% |           0      0.00%     67.39% |           1      2.17%     69.57% |           0      0.00%     69.57% |           0      0.00%     69.57% |          13     28.26%     97.83% |           0      0.00%     97.83% |           0      0.00%     97.83% |           0      0.00%     97.83% |           0      0.00%     97.83% |           1      2.17%    100.00% (Unspecified)
board.cache_hierarchy.ruby_system.L2Cache_Controller.MT_IB.WB_Data::total           46                       (Unspecified)
board.cache_hierarchy.ruby_system.L2Cache_Controller.MT_IB.WB_Data_clean |           0      0.00%      0.00% |           0      0.00%      0.00% |           0      0.00%      0.00% |          15     93.75%     93.75% |           0      0.00%     93.75% |           0      0.00%     93.75% |           0      0.00%     93.75% |           0      0.00%     93.75% |           0      0.00%     93.75% |           0      0.00%     93.75% |           0      0.00%     93.75% |           0      0.00%     93.75% |           0      0.00%     93.75% |           0      0.00%     93.75% |           1      6.25%    100.00% |           0      0.00%    100.00% (Unspecified)
board.cache_hierarchy.ruby_system.L2Cache_Controller.MT_IB.WB_Data_clean::total           16                       (Unspecified)
board.cache_hierarchy.ruby_system.L2Cache_Controller.MT_SB.L1_GETS |           0      0.00%      0.00% |           0      0.00%      0.00% |           0      0.00%      0.00% |           0      0.00%      0.00% |           0      0.00%      0.00% |           0      0.00%      0.00% |           0      0.00%      0.00% |           0      0.00%      0.00% |           0      0.00%      0.00% |           0      0.00%      0.00% |           1    100.00%    100.00% |           0      0.00%    100.00% |           0      0.00%    100.00% |           0      0.00%    100.00% |           0      0.00%    100.00% |           0      0.00%    100.00% (Unspecified)
board.cache_hierarchy.ruby_system.L2Cache_Controller.MT_SB.L1_GETS::total            1                       (Unspecified)
board.cache_hierarchy.ruby_system.L2Cache_Controller.MT_SB.Unblock |          34      6.05%      6.05% |          65     11.57%     17.62% |          66     11.74%     29.36% |          35      6.23%     35.59% |          31      5.52%     41.10% |          60     10.68%     51.78% |          20      3.56%     55.34% |          20      3.56%     58.90% |          19      3.38%     62.28% |          41      7.30%     69.57% |          33      5.87%     75.44% |          19      3.38%     78.83% |          32      5.69%     84.52% |          23      4.09%     88.61% |          37      6.58%     95.20% |          27      4.80%    100.00% (Unspecified)
board.cache_hierarchy.ruby_system.L2Cache_Controller.MT_SB.Unblock::total          562                       (Unspecified)
board.cache_hierarchy.ruby_system.RequestType.LD.latency_hist_seqr::bucket_size          128                       (Unspecified)
board.cache_hierarchy.ruby_system.RequestType.LD.latency_hist_seqr::max_bucket         1279                       (Unspecified)
board.cache_hierarchy.ruby_system.RequestType.LD.latency_hist_seqr::samples       382675                       (Unspecified)
board.cache_hierarchy.ruby_system.RequestType.LD.latency_hist_seqr::mean     1.428562                       (Unspecified)
board.cache_hierarchy.ruby_system.RequestType.LD.latency_hist_seqr::gmean     1.029642                       (Unspecified)
board.cache_hierarchy.ruby_system.RequestType.LD.latency_hist_seqr::stdev     5.618453                       (Unspecified)
board.cache_hierarchy.ruby_system.RequestType.LD.latency_hist_seqr |      382612     99.98%     99.98% |          56      0.01%    100.00% |           6      0.00%    100.00% |           0      0.00%    100.00% |           0      0.00%    100.00% |           1      0.00%    100.00% |           0      0.00%    100.00% |           0      0.00%    100.00% |           0      0.00%    100.00% |           0      0.00%    100.00% (Unspecified)
board.cache_hierarchy.ruby_system.RequestType.LD.latency_hist_seqr::total       382675                       (Unspecified)
board.cache_hierarchy.ruby_system.RequestType.LD.hit_latency_hist_seqr::bucket_size            1                       (Unspecified)
board.cache_hierarchy.ruby_system.RequestType.LD.hit_latency_hist_seqr::max_bucket            9                       (Unspecified)
board.cache_hierarchy.ruby_system.RequestType.LD.hit_latency_hist_seqr::samples       379894                       (Unspecified)
board.cache_hierarchy.ruby_system.RequestType.LD.hit_latency_hist_seqr::mean     1.000016                       (Unspecified)
board.cache_hierarchy.ruby_system.RequestType.LD.hit_latency_hist_seqr::gmean     1.000011                       (Unspecified)
board.cache_hierarchy.ruby_system.RequestType.LD.hit_latency_hist_seqr::stdev     0.003974                       (Unspecified)
board.cache_hierarchy.ruby_system.RequestType.LD.hit_latency_hist_seqr |           0      0.00%      0.00% |      379888    100.00%    100.00% |           6      0.00%    100.00% |           0      0.00%    100.00% |           0      0.00%    100.00% |           0      0.00%    100.00% |           0      0.00%    100.00% |           0      0.00%    100.00% |           0      0.00%    100.00% |           0      0.00%    100.00% (Unspecified)
board.cache_hierarchy.ruby_system.RequestType.LD.hit_latency_hist_seqr::total       379894                       (Unspecified)
board.cache_hierarchy.ruby_system.RequestType.LD.miss_latency_hist_seqr::bucket_size          128                       (Unspecified)
board.cache_hierarchy.ruby_system.RequestType.LD.miss_latency_hist_seqr::max_bucket         1279                       (Unspecified)
board.cache_hierarchy.ruby_system.RequestType.LD.miss_latency_hist_seqr::samples         2781                       (Unspecified)
board.cache_hierarchy.ruby_system.RequestType.LD.miss_latency_hist_seqr::mean    59.969435                       (Unspecified)
board.cache_hierarchy.ruby_system.RequestType.LD.miss_latency_hist_seqr::gmean    55.595966                       (Unspecified)
board.cache_hierarchy.ruby_system.RequestType.LD.miss_latency_hist_seqr::stdev    29.864914                       (Unspecified)
board.cache_hierarchy.ruby_system.RequestType.LD.miss_latency_hist_seqr |        2718     97.73%     97.73% |          56      2.01%     99.75% |           6      0.22%     99.96% |           0      0.00%     99.96% |           0      0.00%     99.96% |           1      0.04%    100.00% |           0      0.00%    100.00% |           0      0.00%    100.00% |           0      0.00%    100.00% |           0      0.00%    100.00% (Unspecified)
board.cache_hierarchy.ruby_system.RequestType.LD.miss_latency_hist_seqr::total         2781                       (Unspecified)
board.cache_hierarchy.ruby_system.RequestType.ST.latency_hist_seqr::bucket_size          256                       (Unspecified)
board.cache_hierarchy.ruby_system.RequestType.ST.latency_hist_seqr::max_bucket         2559                       (Unspecified)
board.cache_hierarchy.ruby_system.RequestType.ST.latency_hist_seqr::samples       192935                       (Unspecified)
board.cache_hierarchy.ruby_system.RequestType.ST.latency_hist_seqr::mean     1.812953                       (Unspecified)
board.cache_hierarchy.ruby_system.RequestType.ST.latency_hist_seqr::gmean     1.026471                       (Unspecified)
board.cache_hierarchy.ruby_system.RequestType.ST.latency_hist_seqr::stdev    13.842049                       (Unspecified)
board.cache_hierarchy.ruby_system.RequestType.ST.latency_hist_seqr |      192910     99.99%     99.99% |          16      0.01%    100.00% |           1      0.00%    100.00% |           1      0.00%    100.00% |           6      0.00%    100.00% |           1      0.00%    100.00% |           0      0.00%    100.00% |           0      0.00%    100.00% |           0      0.00%    100.00% |           0      0.00%    100.00% (Unspecified)
board.cache_hierarchy.ruby_system.RequestType.ST.latency_hist_seqr::total       192935                       (Unspecified)
board.cache_hierarchy.ruby_system.RequestType.ST.hit_latency_hist_seqr::bucket_size           32                       (Unspecified)
[...]
board.processor.cores9.core.decode.unblockCycles        10343                       # Number of cycles decode is unblocking (Cycle)
board.processor.cores9.core.decode.squashCycles         2215                       # Number of cycles decode is squashing (Cycle)
board.processor.cores9.core.decode.branchResolved        10662                       # Number of times decode resolved a branch (Count)
board.processor.cores9.core.decode.branchMispred          112                       # Number of times decode detected a branch misprediction (Count)
board.processor.cores9.core.decode.decodedInsts       321794                       # Number of instructions handled by decode (Count)
board.processor.cores9.core.decode.squashedInsts          571                       # Number of squashed instructions handled by decode (Count)
board.processor.cores9.core.executeStats0.numInsts       221304                       # Number of executed instructions (Count)
board.processor.cores9.core.executeStats0.numNop            0                       # Number of nop insts executed (Count)
board.processor.cores9.core.executeStats0.numBranches        12960                       # Number of branches executed (Count)
board.processor.cores9.core.executeStats0.numLoadInsts        56115                       # Number of load instructions executed (Count)
board.processor.cores9.core.executeStats0.numStoreInsts        16942                       # Number of stores executed (Count)
board.processor.cores9.core.executeStats0.instRate     1.287804                       # Inst execution rate ((Count/Cycle))
board.processor.cores9.core.executeStats0.numCCRegReads        35161                       # Number of times the CC registers were read (Count)
board.processor.cores9.core.executeStats0.numCCRegWrites        54630                       # Number of times the CC registers were written (Count)
board.processor.cores9.core.executeStats0.numFpRegReads           20                       # Number of times the floating registers were read (Count)
board.processor.cores9.core.executeStats0.numFpRegWrites           10                       # Number of times the floating registers were written (Count)
board.processor.cores9.core.executeStats0.numIntRegReads       281347                       # Number of times the integer registers were read (Count)
board.processor.cores9.core.executeStats0.numIntRegWrites       178424                       # Number of times the integer registers were written (Count)
board.processor.cores9.core.executeStats0.numMemRefs        73057                       # Number of memory refs (Count)
board.processor.cores9.core.executeStats0.numMiscRegReads       101025                       # Number of times the Misc registers were read (Count)
board.processor.cores9.core.executeStats0.numMiscRegWrites            1                       # Number of times the Misc registers were written (Count)
board.processor.cores9.core.executeStats0.numVecAluAccesses            0                       # Number of vector alu accesses (Count)
board.processor.cores9.core.executeStats0.numDiscardedOps            0                       # Number of ops (including micro ops) which were discarded before commit (Count)
board.processor.cores9.core.fetch.predictedBranches        16951                       # Number of branches that fetch has predicted taken (Count)
board.processor.cores9.core.fetch.cycles       134882                       # Number of cycles fetch has run and was not squashing or blocked (Cycle)
board.processor.cores9.core.fetch.squashCycles         4652                       # Number of cycles fetch has spent squashing (Cycle)
board.processor.cores9.core.fetch.miscStallCycles           61                       # Number of cycles fetch has spent waiting on interrupts, or bad addresses, or out of MSHRs (Cycle)
board.processor.cores9.core.fetch.pendingTrapStallCycles          375                       # Number of stall cycles due to pending traps (Cycle)
board.processor.cores9.core.fetch.cacheLines        25417                       # Number of cache lines fetched (Count)
board.processor.cores9.core.fetch.icacheSquashes           84                       # Number of outstanding Icache misses that were squashed (Count)
board.processor.cores9.core.fetch.nisnDist::samples       169230                       # Number of instructions fetched each cycle (Total) (Count)
board.processor.cores9.core.fetch.nisnDist::mean     2.298800                       # Number of instructions fetched each cycle (Total) (Count)
board.processor.cores9.core.fetch.nisnDist::stdev     3.307819                       # Number of instructions fetched each cycle (Total) (Count)
board.processor.cores9.core.fetch.nisnDist::underflows            0      0.00%      0.00% # Number of instructions fetched each cycle (Total) (Count)
board.processor.cores9.core.fetch.nisnDist::0       106252     62.79%     62.79% # Number of instructions fetched each cycle (Total) (Count)
board.processor.cores9.core.fetch.nisnDist::1         2113      1.25%     64.03% # Number of instructions fetched each cycle (Total) (Count)
board.processor.cores9.core.fetch.nisnDist::2         4123      2.44%     66.47% # Number of instructions fetched each cycle (Total) (Count)
board.processor.cores9.core.fetch.nisnDist::3         8276      4.89%     71.36% # Number of instructions fetched each cycle (Total) (Count)
board.processor.cores9.core.fetch.nisnDist::4           73      0.04%     71.40% # Number of instructions fetched each cycle (Total) (Count)
board.processor.cores9.core.fetch.nisnDist::5         8344      4.93%     76.33% # Number of instructions fetched each cycle (Total) (Count)
board.processor.cores9.core.fetch.nisnDist::6         4211      2.49%     78.82% # Number of instructions fetched each cycle (Total) (Count)
board.processor.cores9.core.fetch.nisnDist::7          143      0.08%     78.91% # Number of instructions fetched each cycle (Total) (Count)
board.processor.cores9.core.fetch.nisnDist::8        35695     21.09%    100.00% # Number of instructions fetched each cycle (Total) (Count)
board.processor.cores9.core.fetch.nisnDist::overflows            0      0.00%    100.00% # Number of instructions fetched each cycle (Total) (Count)
board.processor.cores9.core.fetch.nisnDist::min_value            0                       # Number of instructions fetched each cycle (Total) (Count)
board.processor.cores9.core.fetch.nisnDist::max_value            8                       # Number of instructions fetched each cycle (Total) (Count)
board.processor.cores9.core.fetch.nisnDist::total       169230                       # Number of instructions fetched each cycle (Total) (Count)
board.processor.cores9.core.fetchStats0.numInsts       234181                       # Number of instructions fetched (thread level) (Count)
board.processor.cores9.core.fetchStats0.numOps            0                       # Number of ops (including micro ops) fetched (thread level) (Count)
board.processor.cores9.core.fetchStats0.fetchRate     1.362738                       # Number of inst fetches per cycle ((Count/Cycle))
board.processor.cores9.core.fetchStats0.numBranches        23688                       # Number of branches fetched (Count)
board.processor.cores9.core.fetchStats0.branchRate     0.137844                       # Number of branch fetches per cycle (Ratio)
board.processor.cores9.core.fetchStats0.icacheStallCycles        31586                       # ICache total stall cycles (Cycle)
board.processor.cores9.core.fetchStats0.numFetchSuspends            0                       # Number of times Execute suspended instruction fetching (Count)
board.processor.cores9.core.iew.idleCycles            0                       # Number of cycles IEW is idle (Cycle)
board.processor.cores9.core.iew.squashCycles         2215                       # Number of cycles IEW is squashing (Cycle)
board.processor.cores9.core.iew.blockCycles        52674                       # Number of cycles IEW is blocking (Cycle)
board.processor.cores9.core.iew.unblockCycles         4694                       # Number of cycles IEW is unblocking (Cycle)
board.processor.cores9.core.iew.dispatchedInsts       304764                       # Number of instructions dispatched to IQ (Count)
board.processor.cores9.core.iew.dispSquashedInsts            2                       # Number of squashed instructions skipped by dispatch (Count)
board.processor.cores9.core.iew.dispLoadInsts        76912                       # Number of dispatched load instructions (Count)
board.processor.cores9.core.iew.dispStoreInsts        25225                       # Number of dispatched store instructions (Count)
board.processor.cores9.core.iew.dispNonSpecInsts         4122                       # Number of dispatched non-speculative instructions (Count)
board.processor.cores9.core.iew.iqFullEvents          545                       # Number of times the IQ has become full, causing a stall (Count)
board.processor.cores9.core.iew.lsqFullEvents           55                       # Number of times the LSQ has become full, causing a stall (Count)
board.processor.cores9.core.iew.memOrderViolationEvents         2056                       # Number of memory order violations (Count)
board.processor.cores9.core.iew.predictedTakenIncorrect            7                       # Number of branches that were predicted taken incorrectly (Count)
board.processor.cores9.core.iew.predictedNotTakenIncorrect          159                       # Number of branches that were predicted not taken incorrectly (Count)
board.processor.cores9.core.iew.branchMispredicts          166                       # Number of branch mispredicts detected at execute (Count)
board.processor.cores9.core.iew.instsToCommit       221272                       # Cumulative count of insts sent to commit (Count)
board.processor.cores9.core.iew.writebackCount       221104                       # Cumulative count of insts written-back (Count)
board.processor.cores9.core.iew.producerInst       165810                       # Number of instructions producing a value (Count)
board.processor.cores9.core.iew.consumerInst       266498                       # Number of instructions consuming a value (Count)
board.processor.cores9.core.iew.wbRate       1.286640                       # Insts written-back per cycle ((Count/Cycle))
board.processor.cores9.core.iew.wbFanout     0.622181                       # Average fanout of values written-back ((Count/Count))
board.processor.cores9.core.interrupts.clk_domain.clock         5328                       # Clock period in ticks (Tick)
board.processor.cores9.core.lsq0.forwLoads         4278                       # Number of loads that had data forwarded from stores (Count)
board.processor.cores9.core.lsq0.squashedLoads        43573                       # Number of loads squashed (Count)
board.processor.cores9.core.lsq0.ignoredResponses            1                       # Number of memory responses ignored because the instruction is squashed (Count)
board.processor.cores9.core.lsq0.memOrderViolation         2056                       # Number of memory ordering violations (Count)
board.processor.cores9.core.lsq0.squashedStores        12496                       # Number of stores squashed (Count)
board.processor.cores9.core.lsq0.rescheduledLoads            0                       # Number of loads that were rescheduled (Count)
board.processor.cores9.core.lsq0.blockedByCache            0                       # Number of times an access to memory failed due to the cache being blocked (Count)
board.processor.cores9.core.lsq0.loadToUse::samples        33339                       # Distribution of cycle latency between the first time a load is issued and its completion (Unspecified)
board.processor.cores9.core.lsq0.loadToUse::mean     3.163772                       # Distribution of cycle latency between the first time a load is issued and its completion (Unspecified)
board.processor.cores9.core.lsq0.loadToUse::stdev     4.437526                       # Distribution of cycle latency between the first time a load is issued and its completion (Unspecified)
board.processor.cores9.core.lsq0.loadToUse::0-9        33171     99.50%     99.50% # Distribution of cycle latency between the first time a load is issued and its completion (Unspecified)
board.processor.cores9.core.lsq0.loadToUse::10-19            9      0.03%     99.52% # Distribution of cycle latency between the first time a load is issued and its completion (Unspecified)
board.processor.cores9.core.lsq0.loadToUse::20-29            2      0.01%     99.53% # Distribution of cycle latency between the first time a load is issued and its completion (Unspecified)
board.processor.cores9.core.lsq0.loadToUse::30-39            1      0.00%     99.53% # Distribution of cycle latency between the first time a load is issued and its completion (Unspecified)
board.processor.cores9.core.lsq0.loadToUse::50-59          128      0.38%     99.92% # Distribution of cycle latency between the first time a load is issued and its completion (Unspecified)
board.processor.cores9.core.lsq0.loadToUse::60-69           14      0.04%     99.96% # Distribution of cycle latency between the first time a load is issued and its completion (Unspecified)
board.processor.cores9.core.lsq0.loadToUse::70-79            1      0.00%     99.96% # Distribution of cycle latency between the first time a load is issued and its completion (Unspecified)
board.processor.cores9.core.lsq0.loadToUse::80-89           10      0.03%     99.99% # Distribution of cycle latency between the first time a load is issued and its completion (Unspecified)
board.processor.cores9.core.lsq0.loadToUse::150-159            1      0.00%     99.99% # Distribution of cycle latency between the first time a load is issued and its completion (Unspecified)
board.processor.cores9.core.lsq0.loadToUse::200-209            1      0.00%    100.00% # Distribution of cycle latency between the first time a load is issued and its completion (Unspecified)
board.processor.cores9.core.lsq0.loadToUse::240-249            1      0.00%    100.00% # Distribution of cycle latency between the first time a load is issued and its completion (Unspecified)
board.processor.cores9.core.lsq0.loadToUse::min_value            2                       # Distribution of cycle latency between the first time a load is issued and its completion (Unspecified)
board.processor.cores9.core.lsq0.loadToUse::max_value          245                       # Distribution of cycle latency between the first time a load is issued and its completion (Unspecified)
board.processor.cores9.core.lsq0.loadToUse::total        33339                       # Distribution of cycle latency between the first time a load is issued and its completion (Unspecified)
board.processor.cores9.core.mmu.dtb.rdAccesses        56115                       # TLB accesses on read requests (Count)
board.processor.cores9.core.mmu.dtb.wrAccesses        16942                       # TLB accesses on write requests (Count)
board.processor.cores9.core.mmu.dtb.rdMisses           82                       # TLB misses on read requests (Count)
board.processor.cores9.core.mmu.dtb.wrMisses            8                       # TLB misses on write requests (Count)
board.processor.cores9.core.mmu.dtb.walker.power_state.pwrStateResidencyTicks::UNDEFINED    377437518                       # Cumulative time (in ticks) in various power states (Tick)
board.processor.cores9.core.mmu.itb.rdAccesses            0                       # TLB accesses on read requests (Count)
board.processor.cores9.core.mmu.itb.wrAccesses        25481                       # TLB accesses on write requests (Count)
board.processor.cores9.core.mmu.itb.rdMisses            0                       # TLB misses on read requests (Count)
board.processor.cores9.core.mmu.itb.wrMisses          113                       # TLB misses on write requests (Count)
board.processor.cores9.core.mmu.itb.walker.power_state.pwrStateResidencyTicks::UNDEFINED    377437518                       # Cumulative time (in ticks) in various power states (Tick)
board.processor.cores9.core.power_state.pwrStateResidencyTicks::ON    377437518                       # Cumulative time (in ticks) in various power states (Tick)
board.processor.cores9.core.rename.squashCycles         2215                       # Number of cycles rename is squashing (Cycle)
board.processor.cores9.core.rename.idleCycles        23423                       # Number of cycles rename is idle (Cycle)
board.processor.cores9.core.rename.blockCycles        76385                       # Number of cycles rename is blocking (Cycle)
board.processor.cores9.core.rename.serializeStallCycles            0                       # count of cycles rename stalled for serializing inst (Cycle)
board.processor.cores9.core.rename.runCycles        44007                       # Number of cycles rename is running (Cycle)
board.processor.cores9.core.rename.unblockCycles        23200                       # Number of cycles rename is unblocking (Cycle)
board.processor.cores9.core.rename.renamedInsts       321499                       # Number of instructions processed by rename (Count)
board.processor.cores9.core.rename.ROBFullEvents            8                       # Number of times rename has blocked due to ROB full (Count)
board.processor.cores9.core.rename.IQFullEvents        20292                       # Number of times rename has blocked due to IQ full (Count)
board.processor.cores9.core.rename.LQFullEvents           94                       # Number of times rename has blocked due to LQ full (Count)
board.processor.cores9.core.rename.SQFullEvents          626                       # Number of times rename has blocked due to SQ full (Count)
board.processor.cores9.core.rename.renamedOperands       511083                       # Number of destination operands rename has renamed (Count)
board.processor.cores9.core.rename.lookups      1004868                       # Number of register rename lookups that rename has made (Count)
board.processor.cores9.core.rename.intLookups       440005                       # Number of integer rename lookups (Count)
board.processor.cores9.core.rename.fpLookups           20                       # Number of floating rename lookups (Count)
board.processor.cores9.core.rename.committedMaps       208650                       # Number of HB maps that are committed (Count)
board.processor.cores9.core.rename.undoneMaps       302433                       # Number of HB maps that are undone due to squashing (Count)
board.processor.cores9.core.rename.serializing            0                       # count of serializing insts renamed (Count)
board.processor.cores9.core.rename.tempSerializing            0                       # count of temporary serializing insts renamed (Count)
board.processor.cores9.core.rename.skidInsts        32222                       # count of insts added to the skid buffer (Count)
board.processor.cores9.core.rob.reads          442563                       # The number of ROB reads (Count)
board.processor.cores9.core.rob.writes         632167                       # The number of ROB writes (Count)
board.processor.cores9.core.thread_0.numInsts        79780                       # Number of Instructions committed (Count)
board.processor.cores9.core.thread_0.numOps       135227                       # Number of Ops committed (Count)
board.processor.cores9.core.thread_0.numMemRefs            0                       # Number of Memory References (Count)
board.workload.inst.arm                             0                       # number of arm instructions executed (Count)
board.workload.inst.quiesce                         0                       # number of quiesce instructions executed (Count)

---------- End Simulation Statistics   ----------
