
---------- Begin Simulation Statistics ----------
simSeconds                                   0.026706                       # Number of seconds simulated (Second)
simTicks                                  26706365000                       # Number of ticks simulated (Tick)
finalTick                                 26750752500                       # Number of ticks from beginning of simulation (restored from checkpoints and never reset) (Tick)
simFreq                                  1000000000000                       # The number of ticks per simulated second ((Tick/Second))
hostSeconds                                    229.80                       # Real time elapsed on the host (Second)
hostTickRate                                116217165                       # The number of ticks simulated per host second (ticks/s) ((Tick/Second))
hostMemory                                    1371444                       # Number of bytes of host memory used (Byte)
simInsts                                     31756304                       # Number of instructions simulated (Count)
simOps                                       31756332                       # Number of ops (including micro ops) simulated (Count)
hostInstRate                                   138192                       # Simulator instruction rate (inst/s) ((Count/Second))
hostOpRate                                     138192                       # Simulator op (including micro ops) rate (op/s) ((Count/Second))
board.cache_hierarchy.ruby_system.delayHistogram::bucket_size           16                       # delay histogram for all message (Unspecified)
board.cache_hierarchy.ruby_system.delayHistogram::max_bucket          159                       # delay histogram for all message (Unspecified)
board.cache_hierarchy.ruby_system.delayHistogram::samples     18835577                       # delay histogram for all message (Unspecified)
board.cache_hierarchy.ruby_system.delayHistogram::mean     6.591109                       # delay histogram for all message (Unspecified)
board.cache_hierarchy.ruby_system.delayHistogram::stdev    16.660103                       # delay histogram for all message (Unspecified)
board.cache_hierarchy.ruby_system.delayHistogram |    16258131     86.32%     86.32% |      942287      5.00%     91.32% |      705958      3.75%     95.07% |      434296      2.31%     97.37% |      295347      1.57%     98.94% |      155723      0.83%     99.77% |       38355      0.20%     99.97% |        5249      0.03%    100.00% |         227      0.00%    100.00% |           4      0.00%    100.00% # delay histogram for all message (Unspecified)
board.cache_hierarchy.ruby_system.delayHistogram::total     18835577                       # delay histogram for all message (Unspecified)
board.cache_hierarchy.ruby_system.m_outstandReqHistSeqr::bucket_size            2                       (Unspecified)
board.cache_hierarchy.ruby_system.m_outstandReqHistSeqr::max_bucket           19                       (Unspecified)
board.cache_hierarchy.ruby_system.m_outstandReqHistSeqr::samples      8302791                       (Unspecified)
board.cache_hierarchy.ruby_system.m_outstandReqHistSeqr::mean     7.926288                       (Unspecified)
board.cache_hierarchy.ruby_system.m_outstandReqHistSeqr::gmean     6.098569                       (Unspecified)
board.cache_hierarchy.ruby_system.m_outstandReqHistSeqr::stdev     4.720242                       (Unspecified)
board.cache_hierarchy.ruby_system.m_outstandReqHistSeqr |      736299      8.87%      8.87% |     1225963     14.77%     23.63% |     1067510     12.86%     36.49% |     1049711     12.64%     49.13% |     1013909     12.21%     61.35% |      953935     11.49%     72.83% |      899694     10.84%     83.67% |      748435      9.01%     92.69% |      607335      7.31%    100.00% |           0      0.00%    100.00% (Unspecified)
board.cache_hierarchy.ruby_system.m_outstandReqHistSeqr::total      8302791                       (Unspecified)
board.cache_hierarchy.ruby_system.m_latencyHistSeqr::bucket_size          128                       (Unspecified)
board.cache_hierarchy.ruby_system.m_latencyHistSeqr::max_bucket         1279                       (Unspecified)
board.cache_hierarchy.ruby_system.m_latencyHistSeqr::samples      8315269                       (Unspecified)
board.cache_hierarchy.ruby_system.m_latencyHistSeqr::mean    31.980900                       (Unspecified)
board.cache_hierarchy.ruby_system.m_latencyHistSeqr::gmean     4.756752                       (Unspecified)
board.cache_hierarchy.ruby_system.m_latencyHistSeqr::stdev    62.367127                       (Unspecified)
board.cache_hierarchy.ruby_system.m_latencyHistSeqr |     7473251     89.87%     89.87% |      810236      9.74%     99.62% |       15967      0.19%     99.81% |         147      0.00%     99.81% |         206      0.00%     99.81% |        3152      0.04%     99.85% |       11463      0.14%     99.99% |         754      0.01%    100.00% |          90      0.00%    100.00% |           3      0.00%    100.00% (Unspecified)
board.cache_hierarchy.ruby_system.m_latencyHistSeqr::total      8315269                       (Unspecified)
board.cache_hierarchy.ruby_system.m_hitLatencyHistSeqr::bucket_size            8                       (Unspecified)
board.cache_hierarchy.ruby_system.m_hitLatencyHistSeqr::max_bucket           79                       (Unspecified)
board.cache_hierarchy.ruby_system.m_hitLatencyHistSeqr::samples      5146639                       (Unspecified)
board.cache_hierarchy.ruby_system.m_hitLatencyHistSeqr::mean     1.073810                       (Unspecified)
board.cache_hierarchy.ruby_system.m_hitLatencyHistSeqr::gmean     1.046631                       (Unspecified)
board.cache_hierarchy.ruby_system.m_hitLatencyHistSeqr::stdev     0.335519                       (Unspecified)
board.cache_hierarchy.ruby_system.m_hitLatencyHistSeqr |     5146632    100.00%    100.00% |           1      0.00%    100.00% |           1      0.00%    100.00% |           0      0.00%    100.00% |           1      0.00%    100.00% |           1      0.00%    100.00% |           0      0.00%    100.00% |           1      0.00%    100.00% |           2      0.00%    100.00% |           0      0.00%    100.00% (Unspecified)
board.cache_hierarchy.ruby_system.m_hitLatencyHistSeqr::total      5146639                       (Unspecified)
board.cache_hierarchy.ruby_system.m_missLatencyHistSeqr::bucket_size          128                       (Unspecified)
board.cache_hierarchy.ruby_system.m_missLatencyHistSeqr::max_bucket         1279                       (Unspecified)
board.cache_hierarchy.ruby_system.m_missLatencyHistSeqr::samples      3168630                       (Unspecified)
board.cache_hierarchy.ruby_system.m_missLatencyHistSeqr::mean    82.181661                       (Unspecified)
board.cache_hierarchy.ruby_system.m_missLatencyHistSeqr::gmean    55.626344                       (Unspecified)
board.cache_hierarchy.ruby_system.m_missLatencyHistSeqr::stdev    78.329868                       (Unspecified)
board.cache_hierarchy.ruby_system.m_missLatencyHistSeqr |     2326612     73.43%     73.43% |      810236     25.57%     99.00% |       15967      0.50%     99.50% |         147      0.00%     99.51% |         206      0.01%     99.51% |        3152      0.10%     99.61% |       11463      0.36%     99.97% |         754      0.02%    100.00% |          90      0.00%    100.00% |           3      0.00%    100.00% (Unspecified)
board.cache_hierarchy.ruby_system.m_missLatencyHistSeqr::total      3168630                       (Unspecified)
board.cache_hierarchy.ruby_system.delayVCHist.vnet_0::bucket_size            8                       # delay histogram for vnet_0 (Unspecified)
board.cache_hierarchy.ruby_system.delayVCHist.vnet_0::max_bucket           79                       # delay histogram for vnet_0 (Unspecified)
board.cache_hierarchy.ruby_system.delayVCHist.vnet_0::samples      9500338                       # delay histogram for vnet_0 (Unspecified)
board.cache_hierarchy.ruby_system.delayVCHist.vnet_0::mean     0.453897                       # delay histogram for vnet_0 (Unspecified)
board.cache_hierarchy.ruby_system.delayVCHist.vnet_0::stdev     1.784102                       # delay histogram for vnet_0 (Unspecified)
board.cache_hierarchy.ruby_system.delayVCHist.vnet_0 |     9216863     97.02%     97.02% |      268516      2.83%     99.84% |       13482      0.14%     99.98% |        1277      0.01%    100.00% |         161      0.00%    100.00% |          33      0.00%    100.00% |           5      0.00%    100.00% |           1      0.00%    100.00% |           0      0.00%    100.00% |           0      0.00%    100.00% # delay histogram for vnet_0 (Unspecified)
board.cache_hierarchy.ruby_system.delayVCHist.vnet_0::total      9500338                       # delay histogram for vnet_0 (Unspecified)
board.cache_hierarchy.ruby_system.delayVCHist.vnet_1::bucket_size           16                       # delay histogram for vnet_1 (Unspecified)
board.cache_hierarchy.ruby_system.delayVCHist.vnet_1::max_bucket          159                       # delay histogram for vnet_1 (Unspecified)
board.cache_hierarchy.ruby_system.delayVCHist.vnet_1::samples      9330827                       # delay histogram for vnet_1 (Unspecified)
board.cache_hierarchy.ruby_system.delayVCHist.vnet_1::mean    12.842924                       # delay histogram for vnet_1 (Unspecified)
board.cache_hierarchy.ruby_system.delayVCHist.vnet_1::stdev    21.899669                       # delay histogram for vnet_1 (Unspecified)
board.cache_hierarchy.ruby_system.delayVCHist.vnet_1 |     6768340     72.54%     72.54% |      927528      9.94%     82.48% |      705764      7.56%     90.04% |      434290      4.65%     94.70% |      295347      3.17%     97.86% |      155723      1.67%     99.53% |       38355      0.41%     99.94% |        5249      0.06%    100.00% |         227      0.00%    100.00% |           4      0.00%    100.00% # delay histogram for vnet_1 (Unspecified)
board.cache_hierarchy.ruby_system.delayVCHist.vnet_1::total      9330827                       # delay histogram for vnet_1 (Unspecified)
board.cache_hierarchy.ruby_system.delayVCHist.vnet_2::bucket_size            1                       # delay histogram for vnet_2 (Unspecified)
board.cache_hierarchy.ruby_system.delayVCHist.vnet_2::max_bucket            9                       # delay histogram for vnet_2 (Unspecified)
board.cache_hierarchy.ruby_system.delayVCHist.vnet_2::samples         4412                       # delay histogram for vnet_2 (Unspecified)
board.cache_hierarchy.ruby_system.delayVCHist.vnet_2::mean     0.013599                       # delay histogram for vnet_2 (Unspecified)
board.cache_hierarchy.ruby_system.delayVCHist.vnet_2::stdev     0.164377                       # delay histogram for vnet_2 (Unspecified)
board.cache_hierarchy.ruby_system.delayVCHist.vnet_2 |        4382     99.32%     99.32% |           0      0.00%     99.32% |          30      0.68%    100.00% |           0      0.00%    100.00% |           0      0.00%    100.00% |           0      0.00%    100.00% |           0      0.00%    100.00% |           0      0.00%    100.00% |           0      0.00%    100.00% |           0      0.00%    100.00% # delay histogram for vnet_2 (Unspecified)
board.cache_hierarchy.ruby_system.delayVCHist.vnet_2::total         4412                       # delay histogram for vnet_2 (Unspecified)
board.cache_hierarchy.ruby_system.Directory_Controller.Fetch |      749821     50.06%     50.06% |      748166     49.94%    100.00% (Unspecified)
board.cache_hierarchy.ruby_system.Directory_Controller.Fetch::total      1497987                       (Unspecified)
board.cache_hierarchy.ruby_system.Directory_Controller.Data |       77699     50.11%     50.11% |       77369     49.89%    100.00% (Unspecified)
board.cache_hierarchy.ruby_system.Directory_Controller.Data::total       155068                       (Unspecified)
board.cache_hierarchy.ruby_system.Directory_Controller.Memory_Data |      749823     50.06%     50.06% |      748166     49.94%    100.00% (Unspecified)
board.cache_hierarchy.ruby_system.Directory_Controller.Memory_Data::total      1497989                       (Unspecified)
board.cache_hierarchy.ruby_system.Directory_Controller.Memory_Ack |       77699     50.11%     50.11% |       77369     49.89%    100.00% (Unspecified)
board.cache_hierarchy.ruby_system.Directory_Controller.Memory_Ack::total       155068                       (Unspecified)
board.cache_hierarchy.ruby_system.Directory_Controller.CleanReplacement |      670635     50.05%     50.05% |      669315     49.95%    100.00% (Unspecified)
board.cache_hierarchy.ruby_system.Directory_Controller.CleanReplacement::total      1339950                       (Unspecified)
board.cache_hierarchy.ruby_system.Directory_Controller.I.Fetch |      749821     50.06%     50.06% |      748166     49.94%    100.00% (Unspecified)
board.cache_hierarchy.ruby_system.Directory_Controller.I.Fetch::total      1497987                       (Unspecified)
board.cache_hierarchy.ruby_system.Directory_Controller.M.Data |       77699     50.11%     50.11% |       77369     49.89%    100.00% (Unspecified)
board.cache_hierarchy.ruby_system.Directory_Controller.M.Data::total       155068                       (Unspecified)
board.cache_hierarchy.ruby_system.Directory_Controller.M.CleanReplacement |      670635     50.05%     50.05% |      669315     49.95%    100.00% (Unspecified)
board.cache_hierarchy.ruby_system.Directory_Controller.M.CleanReplacement::total      1339950                       (Unspecified)
board.cache_hierarchy.ruby_system.Directory_Controller.IM.Memory_Data |      749823     50.06%     50.06% |      748166     49.94%    100.00% (Unspecified)
board.cache_hierarchy.ruby_system.Directory_Controller.IM.Memory_Data::total      1497989                       (Unspecified)
board.cache_hierarchy.ruby_system.Directory_Controller.MI.Memory_Ack |       77699     50.11%     50.11% |       77369     49.89%    100.00% (Unspecified)
board.cache_hierarchy.ruby_system.Directory_Controller.MI.Memory_Ack::total       155068                       (Unspecified)
board.cache_hierarchy.ruby_system.L1Cache_Controller.Load      7105740      0.00%      0.00% (Unspecified)
board.cache_hierarchy.ruby_system.L1Cache_Controller.Ifetch       776055      0.00%      0.00% (Unspecified)
board.cache_hierarchy.ruby_system.L1Cache_Controller.Store       435462      0.00%      0.00% (Unspecified)
board.cache_hierarchy.ruby_system.L1Cache_Controller.Inv         4412      0.00%      0.00% (Unspecified)
board.cache_hierarchy.ruby_system.L1Cache_Controller.L1_Replacement      3165180      0.00%      0.00% (Unspecified)
board.cache_hierarchy.ruby_system.L1Cache_Controller.Data_Exclusive      3139189      0.00%      0.00% (Unspecified)
board.cache_hierarchy.ruby_system.L1Cache_Controller.Data_all_Acks        29441      0.00%      0.00% (Unspecified)
board.cache_hierarchy.ruby_system.L1Cache_Controller.WB_Ack      3164778      0.00%      0.00% (Unspecified)
board.cache_hierarchy.ruby_system.L1Cache_Controller.NP.Load      3137461      0.00%      0.00% (Unspecified)
board.cache_hierarchy.ruby_system.L1Cache_Controller.NP.Ifetch           57      0.00%      0.00% (Unspecified)
board.cache_hierarchy.ruby_system.L1Cache_Controller.NP.Store        27731      0.00%      0.00% (Unspecified)
board.cache_hierarchy.ruby_system.L1Cache_Controller.NP.Inv          185      0.00%      0.00% (Unspecified)
board.cache_hierarchy.ruby_system.L1Cache_Controller.I.Load         1728      0.00%      0.00% (Unspecified)
board.cache_hierarchy.ruby_system.L1Cache_Controller.I.Ifetch         1640      0.00%      0.00% (Unspecified)
board.cache_hierarchy.ruby_system.L1Cache_Controller.I.Store           12      0.00%      0.00% (Unspecified)
board.cache_hierarchy.ruby_system.L1Cache_Controller.I.L1_Replacement          354      0.00%      0.00% (Unspecified)
board.cache_hierarchy.ruby_system.L1Cache_Controller.S.Ifetch       774358      0.00%      0.00% (Unspecified)
board.cache_hierarchy.ruby_system.L1Cache_Controller.S.Inv         2144      0.00%      0.00% (Unspecified)
board.cache_hierarchy.ruby_system.L1Cache_Controller.S.L1_Replacement           36      0.00%      0.00% (Unspecified)
board.cache_hierarchy.ruby_system.L1Cache_Controller.E.Load      3650086      0.00%      0.00% (Unspecified)
board.cache_hierarchy.ruby_system.L1Cache_Controller.E.Store       136348      0.00%      0.00% (Unspecified)
board.cache_hierarchy.ruby_system.L1Cache_Controller.E.Inv         1854      0.00%      0.00% (Unspecified)
board.cache_hierarchy.ruby_system.L1Cache_Controller.E.L1_Replacement      3000676      0.00%      0.00% (Unspecified)
board.cache_hierarchy.ruby_system.L1Cache_Controller.M.Load       314480      0.00%      0.00% (Unspecified)
board.cache_hierarchy.ruby_system.L1Cache_Controller.M.Store       271367      0.00%      0.00% (Unspecified)
board.cache_hierarchy.ruby_system.L1Cache_Controller.M.Inv          225      0.00%      0.00% (Unspecified)
board.cache_hierarchy.ruby_system.L1Cache_Controller.M.L1_Replacement       164102      0.00%      0.00% (Unspecified)
board.cache_hierarchy.ruby_system.L1Cache_Controller.IS.L1_Replacement           12      0.00%      0.00% (Unspecified)
board.cache_hierarchy.ruby_system.L1Cache_Controller.IS.Data_Exclusive      3139189      0.00%      0.00% (Unspecified)
board.cache_hierarchy.ruby_system.L1Cache_Controller.IS.Data_all_Acks         1698      0.00%      0.00% (Unspecified)
board.cache_hierarchy.ruby_system.L1Cache_Controller.IM.Data_all_Acks        27743      0.00%      0.00% (Unspecified)
board.cache_hierarchy.ruby_system.L1Cache_Controller.M_I.Load         1985      0.00%      0.00% (Unspecified)
board.cache_hierarchy.ruby_system.L1Cache_Controller.M_I.Store            4      0.00%      0.00% (Unspecified)
board.cache_hierarchy.ruby_system.L1Cache_Controller.M_I.Inv            4      0.00%      0.00% (Unspecified)
board.cache_hierarchy.ruby_system.L1Cache_Controller.M_I.WB_Ack      3164774      0.00%      0.00% (Unspecified)
board.cache_hierarchy.ruby_system.L1Cache_Controller.SINK_WB_ACK.WB_Ack            4      0.00%      0.00% (Unspecified)
board.cache_hierarchy.ruby_system.L2Cache_Controller.L1_GET_INSTR |         638     35.60%     35.60% |         650     36.27%     71.88% |         333     18.58%     90.46% |         171      9.54%    100.00% (Unspecified)
board.cache_hierarchy.ruby_system.L2Cache_Controller.L1_GET_INSTR::total         1792                       (Unspecified)
board.cache_hierarchy.ruby_system.L2Cache_Controller.L1_GETS |      786401     25.05%     25.05% |      783790     24.97%     50.02% |      784789     25.00%     75.01% |      784418     24.99%    100.00% (Unspecified)
board.cache_hierarchy.ruby_system.L2Cache_Controller.L1_GETS::total      3139398                       (Unspecified)
board.cache_hierarchy.ruby_system.L2Cache_Controller.L1_GETX |        6965     25.10%     25.10% |        6928     24.96%     50.06% |        6953     25.05%     75.12% |        6905     24.88%    100.00% (Unspecified)
board.cache_hierarchy.ruby_system.L2Cache_Controller.L1_GETX::total        27751                       (Unspecified)
board.cache_hierarchy.ruby_system.L2Cache_Controller.L1_PUTX |      792616     25.04%     25.04% |      790337     24.97%     50.02% |      791093     25.00%     75.01% |      790728     24.99%    100.00% (Unspecified)
board.cache_hierarchy.ruby_system.L2Cache_Controller.L1_PUTX::total      3164774                       (Unspecified)
board.cache_hierarchy.ruby_system.L2Cache_Controller.L1_PUTX_old |           2     25.00%     25.00% |           0      0.00%     25.00% |           2     25.00%     50.00% |           4     50.00%    100.00% (Unspecified)
board.cache_hierarchy.ruby_system.L2Cache_Controller.L1_PUTX_old::total            8                       (Unspecified)
board.cache_hierarchy.ruby_system.L2Cache_Controller.L2_Replacement |       38985     25.16%     25.16% |       38623     24.92%     50.08% |       38713     24.98%     75.06% |       38648     24.94%    100.00% (Unspecified)
board.cache_hierarchy.ruby_system.L2Cache_Controller.L2_Replacement::total       154969                       (Unspecified)
board.cache_hierarchy.ruby_system.L2Cache_Controller.L2_Replacement_clean |      335569     25.04%     25.04% |      335157     25.01%     50.05% |      334972     25.00%     75.05% |      334351     24.95%    100.00% (Unspecified)
board.cache_hierarchy.ruby_system.L2Cache_Controller.L2_Replacement_clean::total      1340049                       (Unspecified)
board.cache_hierarchy.ruby_system.L2Cache_Controller.Mem_Data |      375306     25.05%     25.05% |      374517     25.00%     50.06% |      374424     25.00%     75.05% |      373742     24.95%    100.00% (Unspecified)
board.cache_hierarchy.ruby_system.L2Cache_Controller.Mem_Data::total      1497989                       (Unspecified)
board.cache_hierarchy.ruby_system.L2Cache_Controller.Mem_Ack |      374554     25.05%     25.05% |      373780     25.00%     50.06% |      373685     25.00%     75.05% |      372999     24.95%    100.00% (Unspecified)
board.cache_hierarchy.ruby_system.L2Cache_Controller.Mem_Ack::total      1495018                       (Unspecified)
board.cache_hierarchy.ruby_system.L2Cache_Controller.WB_Data |         214     95.11%     95.11% |           3      1.33%     96.44% |           4      1.78%     98.22% |           4      1.78%    100.00% (Unspecified)
board.cache_hierarchy.ruby_system.L2Cache_Controller.WB_Data::total          225                       (Unspecified)
board.cache_hierarchy.ruby_system.L2Cache_Controller.WB_Data_clean |           1     25.00%     25.00% |           0      0.00%     25.00% |           1     25.00%     50.00% |           2     50.00%    100.00% (Unspecified)
board.cache_hierarchy.ruby_system.L2Cache_Controller.WB_Data_clean::total            4                       (Unspecified)
board.cache_hierarchy.ruby_system.L2Cache_Controller.Ack_all |        1186     28.35%     28.35% |        1075     25.70%     54.05% |        1068     25.53%     79.58% |         854     20.42%    100.00% (Unspecified)
board.cache_hierarchy.ruby_system.L2Cache_Controller.Ack_all::total         4183                       (Unspecified)
board.cache_hierarchy.ruby_system.L2Cache_Controller.Exclusive_Unblock |      793287     25.05%     25.05% |      790677     24.97%     50.02% |      791693     25.00%     75.01% |      791275     24.99%    100.00% (Unspecified)
board.cache_hierarchy.ruby_system.L2Cache_Controller.Exclusive_Unblock::total      3166932                       (Unspecified)
board.cache_hierarchy.ruby_system.L2Cache_Controller.NP.L1_GET_INSTR |         592     35.09%     35.09% |         594     35.21%     70.30% |         331     19.62%     89.92% |         170     10.08%    100.00% (Unspecified)
board.cache_hierarchy.ruby_system.L2Cache_Controller.NP.L1_GET_INSTR::total         1687                       (Unspecified)
board.cache_hierarchy.ruby_system.L2Cache_Controller.NP.L1_GETS |      368018     25.04%     25.04% |      367249     24.99%     50.03% |      367411     25.00%     75.03% |      366899     24.97%    100.00% (Unspecified)
board.cache_hierarchy.ruby_system.L2Cache_Controller.NP.L1_GETS::total      1469577                       (Unspecified)
board.cache_hierarchy.ruby_system.L2Cache_Controller.NP.L1_GETX |        6695     25.05%     25.05% |        6673     24.97%     50.02% |        6682     25.00%     75.03% |        6673     24.97%    100.00% (Unspecified)
board.cache_hierarchy.ruby_system.L2Cache_Controller.NP.L1_GETX::total        26723                       (Unspecified)
board.cache_hierarchy.ruby_system.L2Cache_Controller.NP.L1_PUTX_old |           1     25.00%     25.00% |           0      0.00%     25.00% |           1     25.00%     50.00% |           2     50.00%    100.00% (Unspecified)
board.cache_hierarchy.ruby_system.L2Cache_Controller.NP.L1_PUTX_old::total            4                       (Unspecified)
board.cache_hierarchy.ruby_system.L2Cache_Controller.SS.L1_GET_INSTR |           6     66.67%     66.67% |           1     11.11%     77.78% |           1     11.11%     88.89% |           1     11.11%    100.00% (Unspecified)
board.cache_hierarchy.ruby_system.L2Cache_Controller.SS.L1_GET_INSTR::total            9                       (Unspecified)
board.cache_hierarchy.ruby_system.L2Cache_Controller.SS.L2_Replacement_clean |         752     32.29%     32.29% |         757     32.50%     64.79% |         488     20.95%     85.74% |         332     14.26%    100.00% (Unspecified)
board.cache_hierarchy.ruby_system.L2Cache_Controller.SS.L2_Replacement_clean::total         2329                       (Unspecified)
board.cache_hierarchy.ruby_system.L2Cache_Controller.M.L1_GETS |      418312     25.05%     25.05% |      416500     24.95%     50.00% |      417329     25.00%     75.00% |      417471     25.00%    100.00% (Unspecified)
board.cache_hierarchy.ruby_system.L2Cache_Controller.M.L1_GETS::total      1669612                       (Unspecified)
board.cache_hierarchy.ruby_system.L2Cache_Controller.M.L1_GETX |         262     25.69%     25.69% |         255     25.00%     50.69% |         271     26.57%     77.25% |         232     22.75%    100.00% (Unspecified)
board.cache_hierarchy.ruby_system.L2Cache_Controller.M.L1_GETX::total         1020                       (Unspecified)
board.cache_hierarchy.ruby_system.L2Cache_Controller.M.L2_Replacement |       38840     25.09%     25.09% |       38608     24.94%     50.04% |       38693     25.00%     75.04% |       38632     24.96%    100.00% (Unspecified)
board.cache_hierarchy.ruby_system.L2Cache_Controller.M.L2_Replacement::total       154773                       (Unspecified)
board.cache_hierarchy.ruby_system.L2Cache_Controller.M.L2_Replacement_clean |      334313     25.03%     25.03% |      334094     25.01%     50.04% |      333919     25.00%     75.03% |      333507     24.97%    100.00% (Unspecified)
board.cache_hierarchy.ruby_system.L2Cache_Controller.M.L2_Replacement_clean::total      1335833                       (Unspecified)
board.cache_hierarchy.ruby_system.L2Cache_Controller.MT.L1_PUTX |      792616     25.04%     25.04% |      790337     24.97%     50.02% |      791093     25.00%     75.01% |      790728     24.99%    100.00% (Unspecified)
board.cache_hierarchy.ruby_system.L2Cache_Controller.MT.L1_PUTX::total      3164774                       (Unspecified)
board.cache_hierarchy.ruby_system.L2Cache_Controller.MT.L2_Replacement |         145     73.98%     73.98% |          15      7.65%     81.63% |          20     10.20%     91.84% |          16      8.16%    100.00% (Unspecified)
board.cache_hierarchy.ruby_system.L2Cache_Controller.MT.L2_Replacement::total          196                       (Unspecified)
board.cache_hierarchy.ruby_system.L2Cache_Controller.MT.L2_Replacement_clean |         504     26.71%     26.71% |         306     16.22%     42.93% |         565     29.94%     72.87% |         512     27.13%    100.00% (Unspecified)
board.cache_hierarchy.ruby_system.L2Cache_Controller.MT.L2_Replacement_clean::total         1887                       (Unspecified)
board.cache_hierarchy.ruby_system.L2Cache_Controller.M_I.L1_GET_INSTR |          40     41.67%     41.67% |          55     57.29%     98.96% |           1      1.04%    100.00% |           0      0.00%    100.00% (Unspecified)
board.cache_hierarchy.ruby_system.L2Cache_Controller.M_I.L1_GET_INSTR::total           96                       (Unspecified)
board.cache_hierarchy.ruby_system.L2Cache_Controller.M_I.L1_GETS |          71     33.97%     33.97% |          41     19.62%     53.59% |          49     23.44%     77.03% |          48     22.97%    100.00% (Unspecified)
board.cache_hierarchy.ruby_system.L2Cache_Controller.M_I.L1_GETS::total          209                       (Unspecified)
board.cache_hierarchy.ruby_system.L2Cache_Controller.M_I.L1_GETX |           8    100.00%    100.00% |           0      0.00%    100.00% |           0      0.00%    100.00% |           0      0.00%    100.00% (Unspecified)
board.cache_hierarchy.ruby_system.L2Cache_Controller.M_I.L1_GETX::total            8                       (Unspecified)
board.cache_hierarchy.ruby_system.L2Cache_Controller.M_I.Mem_Ack |      374554     25.05%     25.05% |      373780     25.00%     50.06% |      373685     25.00%     75.05% |      372999     24.95%    100.00% (Unspecified)
board.cache_hierarchy.ruby_system.L2Cache_Controller.M_I.Mem_Ack::total      1495018                       (Unspecified)
board.cache_hierarchy.ruby_system.L2Cache_Controller.MT_I.L1_PUTX_old |           0      0.00%      0.00% |           0      0.00%      0.00% |           0      0.00%      0.00% |           1    100.00%    100.00% (Unspecified)
board.cache_hierarchy.ruby_system.L2Cache_Controller.MT_I.L1_PUTX_old::total            1                       (Unspecified)
board.cache_hierarchy.ruby_system.L2Cache_Controller.MT_I.WB_Data |         126    100.00%    100.00% |           0      0.00%    100.00% |           0      0.00%    100.00% |           0      0.00%    100.00% (Unspecified)
board.cache_hierarchy.ruby_system.L2Cache_Controller.MT_I.WB_Data::total          126                       (Unspecified)
board.cache_hierarchy.ruby_system.L2Cache_Controller.MT_I.WB_Data_clean |           0      0.00%      0.00% |           0      0.00%      0.00% |           0      0.00%      0.00% |           1    100.00%    100.00% (Unspecified)
board.cache_hierarchy.ruby_system.L2Cache_Controller.MT_I.WB_Data_clean::total            1                       (Unspecified)
board.cache_hierarchy.ruby_system.L2Cache_Controller.MT_I.Ack_all |          19     27.54%     27.54% |          15     21.74%     49.28% |          20     28.99%     78.26% |          15     21.74%    100.00% (Unspecified)
board.cache_hierarchy.ruby_system.L2Cache_Controller.MT_I.Ack_all::total           69                       (Unspecified)
board.cache_hierarchy.ruby_system.L2Cache_Controller.MCT_I.L1_PUTX_old |           1     33.33%     33.33% |           0      0.00%     33.33% |           1     33.33%     66.67% |           1     33.33%    100.00% (Unspecified)
board.cache_hierarchy.ruby_system.L2Cache_Controller.MCT_I.L1_PUTX_old::total            3                       (Unspecified)
board.cache_hierarchy.ruby_system.L2Cache_Controller.MCT_I.WB_Data |          88     88.89%     88.89% |           3      3.03%     91.92% |           4      4.04%     95.96% |           4      4.04%    100.00% (Unspecified)
board.cache_hierarchy.ruby_system.L2Cache_Controller.MCT_I.WB_Data::total           99                       (Unspecified)
board.cache_hierarchy.ruby_system.L2Cache_Controller.MCT_I.WB_Data_clean |           1     33.33%     33.33% |           0      0.00%     33.33% |           1     33.33%     66.67% |           1     33.33%    100.00% (Unspecified)
board.cache_hierarchy.ruby_system.L2Cache_Controller.MCT_I.WB_Data_clean::total            3                       (Unspecified)
board.cache_hierarchy.ruby_system.L2Cache_Controller.MCT_I.Ack_all |         415     23.25%     23.25% |         303     16.97%     40.22% |         560     31.37%     71.60% |         507     28.40%    100.00% (Unspecified)
board.cache_hierarchy.ruby_system.L2Cache_Controller.MCT_I.Ack_all::total         1785                       (Unspecified)
board.cache_hierarchy.ruby_system.L2Cache_Controller.I_I.Ack_all |         752     32.29%     32.29% |         757     32.50%     64.79% |         488     20.95%     85.74% |         332     14.26%    100.00% (Unspecified)
board.cache_hierarchy.ruby_system.L2Cache_Controller.I_I.Ack_all::total         2329                       (Unspecified)
board.cache_hierarchy.ruby_system.L2Cache_Controller.ISS.Mem_Data |      368018     25.04%     25.04% |      367249     24.99%     50.03% |      367411     25.00%     75.03% |      366899     24.97%    100.00% (Unspecified)
board.cache_hierarchy.ruby_system.L2Cache_Controller.ISS.Mem_Data::total      1469577                       (Unspecified)
board.cache_hierarchy.ruby_system.L2Cache_Controller.IS.Mem_Data |         593     35.11%     35.11% |         595     35.23%     70.34% |         331     19.60%     89.93% |         170     10.07%    100.00% (Unspecified)
board.cache_hierarchy.ruby_system.L2Cache_Controller.IS.Mem_Data::total         1689                       (Unspecified)
board.cache_hierarchy.ruby_system.L2Cache_Controller.IM.Mem_Data |        6695     25.05%     25.05% |        6673     24.97%     50.02% |        6682     25.00%     75.03% |        6673     24.97%    100.00% (Unspecified)
board.cache_hierarchy.ruby_system.L2Cache_Controller.IM.Mem_Data::total        26723                       (Unspecified)
board.cache_hierarchy.ruby_system.L2Cache_Controller.MT_MB.Exclusive_Unblock |      793287     25.05%     25.05% |      790677     24.97%     50.02% |      791693     25.00%     75.01% |      791275     24.99%    100.00% (Unspecified)
board.cache_hierarchy.ruby_system.L2Cache_Controller.MT_MB.Exclusive_Unblock::total      3166932                       (Unspecified)
board.cache_hierarchy.ruby_system.RequestType.LD.latency_hist_seqr::bucket_size          128                       (Unspecified)
board.cache_hierarchy.ruby_system.RequestType.LD.latency_hist_seqr::max_bucket         1279                       (Unspecified)
board.cache_hierarchy.ruby_system.RequestType.LD.latency_hist_seqr::samples      7103755                       (Unspecified)
board.cache_hierarchy.ruby_system.RequestType.LD.latency_hist_seqr::mean    36.731803                       (Unspecified)
board.cache_hierarchy.ruby_system.RequestType.LD.latency_hist_seqr::gmean     6.066018                       (Unspecified)
board.cache_hierarchy.ruby_system.RequestType.LD.latency_hist_seqr::stdev    65.620283                       (Unspecified)
board.cache_hierarchy.ruby_system.RequestType.LD.latency_hist_seqr |     6271609     88.29%     88.29% |      801198     11.28%     99.56% |       15451      0.22%     99.78% |         114      0.00%     99.78% |         200      0.00%     99.79% |        3099      0.04%     99.83% |       11257      0.16%     99.99% |         742      0.01%    100.00% |          85      0.00%    100.00% |           0      0.00%    100.00% (Unspecified)
board.cache_hierarchy.ruby_system.RequestType.LD.latency_hist_seqr::total      7103755                       (Unspecified)
board.cache_hierarchy.ruby_system.RequestType.LD.hit_latency_hist_seqr::bucket_size            1                       (Unspecified)
board.cache_hierarchy.ruby_system.RequestType.LD.hit_latency_hist_seqr::max_bucket            9                       (Unspecified)
board.cache_hierarchy.ruby_system.RequestType.LD.hit_latency_hist_seqr::samples      3964566                       (Unspecified)
board.cache_hierarchy.ruby_system.RequestType.LD.hit_latency_hist_seqr::mean     1.087419                       (Unspecified)
board.cache_hierarchy.ruby_system.RequestType.LD.hit_latency_hist_seqr::gmean     1.054930                       (Unspecified)
board.cache_hierarchy.ruby_system.RequestType.LD.hit_latency_hist_seqr::stdev     0.364522                       (Unspecified)
board.cache_hierarchy.ruby_system.RequestType.LD.hit_latency_hist_seqr |           0      0.00%      0.00% |     3711147     93.61%     93.61% |      172359      4.35%     97.96% |       68964      1.74%     99.69% |       12094      0.31%    100.00% |           2      0.00%    100.00% |           0      0.00%    100.00% |           0      0.00%    100.00% |           0      0.00%    100.00% |           0      0.00%    100.00% (Unspecified)
board.cache_hierarchy.ruby_system.RequestType.LD.hit_latency_hist_seqr::total      3964566                       (Unspecified)
board.cache_hierarchy.ruby_system.RequestType.LD.miss_latency_hist_seqr::bucket_size          128                       (Unspecified)
board.cache_hierarchy.ruby_system.RequestType.LD.miss_latency_hist_seqr::max_bucket         1279                       (Unspecified)
board.cache_hierarchy.ruby_system.RequestType.LD.miss_latency_hist_seqr::samples      3139189                       (Unspecified)
board.cache_hierarchy.ruby_system.RequestType.LD.miss_latency_hist_seqr::mean    81.748052                       (Unspecified)
board.cache_hierarchy.ruby_system.RequestType.LD.miss_latency_hist_seqr::gmean    55.248927                       (Unspecified)
board.cache_hierarchy.ruby_system.RequestType.LD.miss_latency_hist_seqr::stdev    78.185711                       (Unspecified)
board.cache_hierarchy.ruby_system.RequestType.LD.miss_latency_hist_seqr |     2307043     73.49%     73.49% |      801198     25.52%     99.01% |       15451      0.49%     99.51% |         114      0.00%     99.51% |         200      0.01%     99.52% |        3099      0.10%     99.62% |       11257      0.36%     99.97% |         742      0.02%    100.00% |          85      0.00%    100.00% |           0      0.00%    100.00% (Unspecified)
board.cache_hierarchy.ruby_system.RequestType.LD.miss_latency_hist_seqr::total      3139189                       (Unspecified)
board.cache_hierarchy.ruby_system.RequestType.ST.latency_hist_seqr::bucket_size          128                       (Unspecified)
board.cache_hierarchy.ruby_system.RequestType.ST.latency_hist_seqr::max_bucket         1279                       (Unspecified)
board.cache_hierarchy.ruby_system.RequestType.ST.latency_hist_seqr::samples       435458                       (Unspecified)
board.cache_hierarchy.ruby_system.RequestType.ST.latency_hist_seqr::mean     9.074753                       (Unspecified)
board.cache_hierarchy.ruby_system.RequestType.ST.latency_hist_seqr::gmean     1.417896                       (Unspecified)
board.cache_hierarchy.ruby_system.RequestType.ST.latency_hist_seqr::stdev    36.651339                       (Unspecified)
board.cache_hierarchy.ruby_system.RequestType.ST.latency_hist_seqr |      426974     98.05%     98.05% |        7684      1.76%     99.82% |         504      0.12%     99.93% |          33      0.01%     99.94% |           5      0.00%     99.94% |          48      0.01%     99.95% |         193      0.04%    100.00% |           9      0.00%    100.00% |           5      0.00%    100.00% |           3      0.00%    100.00% (Unspecified)
board.cache_hierarchy.ruby_system.RequestType.ST.latency_hist_seqr::total       435458                       (Unspecified)
board.cache_hierarchy.ruby_system.RequestType.ST.hit_latency_hist_seqr::bucket_size            8                       (Unspecified)
board.cache_hierarchy.ruby_system.RequestType.ST.hit_latency_hist_seqr::max_bucket           79                       (Unspecified)
board.cache_hierarchy.ruby_system.RequestType.ST.hit_latency_hist_seqr::samples       407715                       (Unspecified)
board.cache_hierarchy.ruby_system.RequestType.ST.hit_latency_hist_seqr::mean     1.075442                       (Unspecified)
board.cache_hierarchy.ruby_system.RequestType.ST.hit_latency_hist_seqr::gmean     1.052476                       (Unspecified)
board.cache_hierarchy.ruby_system.RequestType.ST.hit_latency_hist_seqr::stdev     0.332681                       (Unspecified)
board.cache_hierarchy.ruby_system.RequestType.ST.hit_latency_hist_seqr |      407708    100.00%    100.00% |           1      0.00%    100.00% |           1      0.00%    100.00% |           0      0.00%    100.00% |           1      0.00%    100.00% |           1      0.00%    100.00% |           0      0.00%    100.00% |           1      0.00%    100.00% |           2      0.00%    100.00% |           0      0.00%    100.00% (Unspecified)
board.cache_hierarchy.ruby_system.RequestType.ST.hit_latency_hist_seqr::total       407715                       (Unspecified)
board.cache_hierarchy.ruby_system.RequestType.ST.miss_latency_hist_seqr::bucket_size          128                       (Unspecified)
board.cache_hierarchy.ruby_system.RequestType.ST.miss_latency_hist_seqr::max_bucket         1279                       (Unspecified)
board.cache_hierarchy.ruby_system.RequestType.ST.miss_latency_hist_seqr::samples        27743                       (Unspecified)
board.cache_hierarchy.ruby_system.RequestType.ST.miss_latency_hist_seqr::mean   126.633745                       (Unspecified)
board.cache_hierarchy.ruby_system.RequestType.ST.miss_latency_hist_seqr::gmean   113.187129                       (Unspecified)
board.cache_hierarchy.ruby_system.RequestType.ST.miss_latency_hist_seqr::stdev    79.517253                       (Unspecified)
board.cache_hierarchy.ruby_system.RequestType.ST.miss_latency_hist_seqr |       19259     69.42%     69.42% |        7684     27.70%     97.12% |         504      1.82%     98.93% |          33      0.12%     99.05% |           5      0.02%     99.07% |          48      0.17%     99.24% |         193      0.70%     99.94% |           9      0.03%     99.97% |           5      0.02%     99.99% |           3      0.01%    100.00% (Unspecified)
board.cache_hierarchy.ruby_system.RequestType.ST.miss_latency_hist_seqr::total        27743                       (Unspecified)
board.cache_hierarchy.ruby_system.RequestType.IFETCH.latency_hist_seqr::bucket_size          128                       (Unspecified)
board.cache_hierarchy.ruby_system.RequestType.IFETCH.latency_hist_seqr::max_bucket         1279                       (Unspecified)
board.cache_hierarchy.ruby_system.RequestType.IFETCH.latency_hist_seqr::samples       776056                       (Unspecified)
board.cache_hierarchy.ruby_system.RequestType.IFETCH.latency_hist_seqr::mean     1.345759                       (Unspecified)
board.cache_hierarchy.ruby_system.RequestType.IFETCH.latency_hist_seqr::gmean     1.013226                       (Unspecified)
board.cache_hierarchy.ruby_system.RequestType.IFETCH.latency_hist_seqr::stdev     8.226378                       (Unspecified)
board.cache_hierarchy.ruby_system.RequestType.IFETCH.latency_hist_seqr |      774668     99.82%     99.82% |        1354      0.17%    100.00% |          12      0.00%    100.00% |           0      0.00%    100.00% |           1      0.00%    100.00% |           5      0.00%    100.00% |          13      0.00%    100.00% |           3      0.00%    100.00% |           0      0.00%    100.00% |           0      0.00%    100.00% (Unspecified)
board.cache_hierarchy.ruby_system.RequestType.IFETCH.latency_hist_seqr::total       776056                       (Unspecified)
board.cache_hierarchy.ruby_system.RequestType.IFETCH.hit_latency_hist_seqr::bucket_size            1                       (Unspecified)
board.cache_hierarchy.ruby_system.RequestType.IFETCH.hit_latency_hist_seqr::max_bucket            9                       (Unspecified)
board.cache_hierarchy.ruby_system.RequestType.IFETCH.hit_latency_hist_seqr::samples       774358                       (Unspecified)
board.cache_hierarchy.ruby_system.RequestType.IFETCH.hit_latency_hist_seqr::mean     1.003276                       (Unspecified)
board.cache_hierarchy.ruby_system.RequestType.IFETCH.hit_latency_hist_seqr::gmean     1.002211                       (Unspecified)
board.cache_hierarchy.ruby_system.RequestType.IFETCH.hit_latency_hist_seqr::stdev     0.060823                       (Unspecified)
board.cache_hierarchy.ruby_system.RequestType.IFETCH.hit_latency_hist_seqr |           0      0.00%      0.00% |      771989     99.69%     99.69% |        2201      0.28%     99.98% |         168      0.02%    100.00% |           0      0.00%    100.00% |           0      0.00%    100.00% |           0      0.00%    100.00% |           0      0.00%    100.00% |           0      0.00%    100.00% |           0      0.00%    100.00% (Unspecified)
board.cache_hierarchy.ruby_system.RequestType.IFETCH.hit_latency_hist_seqr::total       774358                       (Unspecified)
board.cache_hierarchy.ruby_system.RequestType.IFETCH.miss_latency_hist_seqr::bucket_size          128                       (Unspecified)
board.cache_hierarchy.ruby_system.RequestType.IFETCH.miss_latency_hist_seqr::max_bucket         1279                       (Unspecified)
board.cache_hierarchy.ruby_system.RequestType.IFETCH.miss_latency_hist_seqr::samples         1698                       (Unspecified)
board.cache_hierarchy.ruby_system.RequestType.IFETCH.miss_latency_hist_seqr::mean   157.531802                       (Unspecified)
board.cache_hierarchy.ruby_system.RequestType.IFETCH.miss_latency_hist_seqr::gmean   148.148890                       (Unspecified)
board.cache_hierarchy.ruby_system.RequestType.IFETCH.miss_latency_hist_seqr::stdev    80.523343                       (Unspecified)
board.cache_hierarchy.ruby_system.RequestType.IFETCH.miss_latency_hist_seqr |         310     18.26%     18.26% |        1354     79.74%     98.00% |          12      0.71%     98.70% |           0      0.00%     98.70% |           1      0.06%     98.76% |           5      0.29%     99.06% |          13      0.77%     99.82% |           3      0.18%    100.00% |           0      0.00%    100.00% |           0      0.00%    100.00% (Unspecified)
board.cache_hierarchy.ruby_system.RequestType.IFETCH.miss_latency_hist_seqr::total         1698                       (Unspecified)
board.cache_hierarchy.ruby_system.directory_controllers0.power_state.pwrStateResidencyTicks::UNDEFINED  26750752500                       # Cumulative time (in ticks) in various power states (Tick)
board.cache_hierarchy.ruby_system.directory_controllers0.requestToDir.m_msg_count       750382                       # Number of messages passed the buffer (Count)
board.cache_hierarchy.ruby_system.directory_controllers0.requestToDir.m_buf_msgs     0.014025                       # Average number of messages in buffer ((Count/Tick))
board.cache_hierarchy.ruby_system.directory_controllers0.requestToMemory.m_msg_count       828081                       # Number of messages passed the buffer (Count)
board.cache_hierarchy.ruby_system.directory_controllers0.requestToMemory.m_buf_msgs     0.017115                       # Average number of messages in buffer ((Count/Tick))
board.cache_hierarchy.ruby_system.directory_controllers0.requestToMemory.m_stall_time     43792500                       # Total number of ticks messages were stalled in this buffer (Tick)
board.cache_hierarchy.ruby_system.directory_controllers0.requestToMemory.m_avg_stall_time    52.884319                       # Average stall ticks per message ((Tick/Count))
board.cache_hierarchy.ruby_system.directory_controllers0.responseFromDir.m_msg_count      1498716                       # Number of messages passed the buffer (Count)
board.cache_hierarchy.ruby_system.directory_controllers0.responseFromDir.m_buf_msgs     0.028013                       # Average number of messages in buffer ((Count/Tick))
board.cache_hierarchy.ruby_system.directory_controllers0.responseFromMemory.m_msg_count       828081                       # Number of messages passed the buffer (Count)
board.cache_hierarchy.ruby_system.directory_controllers0.responseFromMemory.m_buf_msgs     0.019474                       # Average number of messages in buffer ((Count/Tick))
board.cache_hierarchy.ruby_system.directory_controllers0.responseToDir.m_msg_count       748334                       # Number of messages passed the buffer (Count)
board.cache_hierarchy.ruby_system.directory_controllers0.responseToDir.m_buf_msgs     0.013987                       # Average number of messages in buffer ((Count/Tick))
board.cache_hierarchy.ruby_system.directory_controllers1.power_state.pwrStateResidencyTicks::UNDEFINED  26750752500                       # Cumulative time (in ticks) in various power states (Tick)
board.cache_hierarchy.ruby_system.directory_controllers1.requestToDir.m_msg_count       748732                       # Number of messages passed the buffer (Count)
board.cache_hierarchy.ruby_system.directory_controllers1.requestToDir.m_buf_msgs     0.013995                       # Average number of messages in buffer ((Count/Tick))
board.cache_hierarchy.ruby_system.directory_controllers1.requestToMemory.m_msg_count       826101                       # Number of messages passed the buffer (Count)
board.cache_hierarchy.ruby_system.directory_controllers1.requestToMemory.m_buf_msgs     0.017072                       # Average number of messages in buffer ((Count/Tick))
board.cache_hierarchy.ruby_system.directory_controllers1.requestToMemory.m_stall_time     43647000                       # Total number of ticks messages were stalled in this buffer (Tick)
board.cache_hierarchy.ruby_system.directory_controllers1.requestToMemory.m_avg_stall_time    52.834944                       # Average stall ticks per message ((Tick/Count))
board.cache_hierarchy.ruby_system.directory_controllers1.responseFromDir.m_msg_count      1495416                       # Number of messages passed the buffer (Count)
board.cache_hierarchy.ruby_system.directory_controllers1.responseFromDir.m_buf_msgs     0.027951                       # Average number of messages in buffer ((Count/Tick))
board.cache_hierarchy.ruby_system.directory_controllers1.responseFromMemory.m_msg_count       826101                       # Number of messages passed the buffer (Count)
board.cache_hierarchy.ruby_system.directory_controllers1.responseFromMemory.m_buf_msgs     0.019426                       # Average number of messages in buffer ((Count/Tick))
board.cache_hierarchy.ruby_system.directory_controllers1.responseToDir.m_msg_count       746684                       # Number of messages passed the buffer (Count)
board.cache_hierarchy.ruby_system.directory_controllers1.responseToDir.m_buf_msgs     0.013956                       # Average number of messages in buffer ((Count/Tick))
board.cache_hierarchy.ruby_system.l1_controllers.fullyBusyCycles      1190606                       # cycles for which number of transistions == max transitions (Unspecified)
board.cache_hierarchy.ruby_system.l1_controllers.delayHistogram::samples      6337820                       # delay_histogram (Unspecified)
board.cache_hierarchy.ruby_system.l1_controllers.delayHistogram::mean    18.896264                       # delay_histogram (Unspecified)
board.cache_hierarchy.ruby_system.l1_controllers.delayHistogram::stdev    24.326648                       # delay_histogram (Unspecified)
board.cache_hierarchy.ruby_system.l1_controllers.delayHistogram::0-15      3775336     59.57%     59.57% # delay_histogram (Unspecified)
board.cache_hierarchy.ruby_system.l1_controllers.delayHistogram::16-31       927525     14.63%     74.20% # delay_histogram (Unspecified)
board.cache_hierarchy.ruby_system.l1_controllers.delayHistogram::32-47       705764     11.14%     85.34% # delay_histogram (Unspecified)
board.cache_hierarchy.ruby_system.l1_controllers.delayHistogram::48-63       434290      6.85%     92.19% # delay_histogram (Unspecified)
board.cache_hierarchy.ruby_system.l1_controllers.delayHistogram::64-79       295347      4.66%     96.85% # delay_histogram (Unspecified)
board.cache_hierarchy.ruby_system.l1_controllers.delayHistogram::80-95       155723      2.46%     99.31% # delay_histogram (Unspecified)
board.cache_hierarchy.ruby_system.l1_controllers.delayHistogram::96-111        38355      0.61%     99.91% # delay_histogram (Unspecified)
board.cache_hierarchy.ruby_system.l1_controllers.delayHistogram::112-127         5249      0.08%    100.00% # delay_histogram (Unspecified)
board.cache_hierarchy.ruby_system.l1_controllers.delayHistogram::128-143          227      0.00%    100.00% # delay_histogram (Unspecified)
board.cache_hierarchy.ruby_system.l1_controllers.delayHistogram::144-159            4      0.00%    100.00% # delay_histogram (Unspecified)
board.cache_hierarchy.ruby_system.l1_controllers.delayHistogram::total      6337820                       # delay_histogram (Unspecified)
board.cache_hierarchy.ruby_system.l1_controllers.L1Dcache.m_demand_hits      4384266                       # Number of cache demand hits (Unspecified)
board.cache_hierarchy.ruby_system.l1_controllers.L1Dcache.m_demand_misses      3167411                       # Number of cache demand misses (Unspecified)
board.cache_hierarchy.ruby_system.l1_controllers.L1Dcache.m_demand_accesses      7551677                       # Number of cache demand accesses (Unspecified)
board.cache_hierarchy.ruby_system.l1_controllers.L1Icache.m_demand_hits       785817                       # Number of cache demand hits (Unspecified)
board.cache_hierarchy.ruby_system.l1_controllers.L1Icache.m_demand_misses         2375                       # Number of cache demand misses (Unspecified)
board.cache_hierarchy.ruby_system.l1_controllers.L1Icache.m_demand_accesses       788192                       # Number of cache demand accesses (Unspecified)
board.cache_hierarchy.ruby_system.l1_controllers.mandatoryQueue.m_msg_count      8339869                       # Number of messages passed the buffer (Count)
board.cache_hierarchy.ruby_system.l1_controllers.mandatoryQueue.m_buf_msgs     0.191477                       # Average number of messages in buffer ((Count/Tick))
board.cache_hierarchy.ruby_system.l1_controllers.mandatoryQueue.m_stall_time    952222000                       # Total number of ticks messages were stalled in this buffer (Tick)
board.cache_hierarchy.ruby_system.l1_controllers.mandatoryQueue.m_stall_count         2001                       # Number of times messages were stalled (Count)
board.cache_hierarchy.ruby_system.l1_controllers.mandatoryQueue.m_avg_stall_time   114.177093                       # Average stall ticks per message ((Tick/Count))
board.cache_hierarchy.ruby_system.l1_controllers.power_state.pwrStateResidencyTicks::UNDEFINED  26750752500                       # Cumulative time (in ticks) in various power states (Tick)
board.cache_hierarchy.ruby_system.l1_controllers.prefetcher.RubyPrefetcher.numMissObserved            0                       # Number of misses observed (Unspecified)
board.cache_hierarchy.ruby_system.l1_controllers.prefetcher.RubyPrefetcher.numAllocatedStreams            0                       # Number of streams allocated for prefetching (Unspecified)
board.cache_hierarchy.ruby_system.l1_controllers.prefetcher.RubyPrefetcher.numPrefetchRequested            0                       # Number of prefetch requests made (Unspecified)
board.cache_hierarchy.ruby_system.l1_controllers.prefetcher.RubyPrefetcher.numHits            0                       # Number of prefetched blocks accessed (for the first time) (Unspecified)
board.cache_hierarchy.ruby_system.l1_controllers.prefetcher.RubyPrefetcher.numPartialHits            0                       # Number of misses observed for a block being prefetched (Unspecified)
board.cache_hierarchy.ruby_system.l1_controllers.prefetcher.RubyPrefetcher.numPagesCrossed            0                       # Number of prefetches across pages (Unspecified)
board.cache_hierarchy.ruby_system.l1_controllers.prefetcher.RubyPrefetcher.numMissedPrefetchedBlocks            0                       # Number of misses for blocks that were prefetched, yet missed (Unspecified)
board.cache_hierarchy.ruby_system.l1_controllers.requestFromL1Cache.m_msg_count      6334603                       # Number of messages passed the buffer (Count)
board.cache_hierarchy.ruby_system.l1_controllers.requestFromL1Cache.m_buf_msgs     0.236801                       # Average number of messages in buffer ((Count/Tick))
board.cache_hierarchy.ruby_system.l1_controllers.requestToL1Cache.m_msg_count         4412                       # Number of messages passed the buffer (Count)
board.cache_hierarchy.ruby_system.l1_controllers.requestToL1Cache.m_buf_msgs     0.000082                       # Average number of messages in buffer ((Count/Tick))
board.cache_hierarchy.ruby_system.l1_controllers.responseFromL1Cache.m_msg_count         4412                       # Number of messages passed the buffer (Count)
board.cache_hierarchy.ruby_system.l1_controllers.responseFromL1Cache.m_buf_msgs     0.000165                       # Average number of messages in buffer ((Count/Tick))
board.cache_hierarchy.ruby_system.l1_controllers.responseToL1Cache.m_msg_count      6334602                       # Number of messages passed the buffer (Count)
board.cache_hierarchy.ruby_system.l1_controllers.responseToL1Cache.m_buf_msgs     0.118400                       # Average number of messages in buffer ((Count/Tick))
board.cache_hierarchy.ruby_system.l1_controllers.sequencer.power_state.pwrStateResidencyTicks::UNDEFINED  26750752500                       # Cumulative time (in ticks) in various power states (Tick)
board.cache_hierarchy.ruby_system.l1_controllers.unblockFromL1Cache.m_msg_count      3167408                       # Number of messages passed the buffer (Count)
board.cache_hierarchy.ruby_system.l1_controllers.unblockFromL1Cache.m_buf_msgs     0.059202                       # Average number of messages in buffer ((Count/Tick))
board.cache_hierarchy.ruby_system.l2_controllers0.fullyBusyCycles            6                       # cycles for which number of transistions == max transitions (Unspecified)
board.cache_hierarchy.ruby_system.l2_controllers0.delayHistogram::samples      3131050                       # delay_histogram (Unspecified)
board.cache_hierarchy.ruby_system.l2_controllers0.delayHistogram::mean     0.355226                       # delay_histogram (Unspecified)
board.cache_hierarchy.ruby_system.l2_controllers0.delayHistogram::stdev     1.590318                       # delay_histogram (Unspecified)
board.cache_hierarchy.ruby_system.l2_controllers0.delayHistogram::0-15      3127124     99.87%     99.87% # delay_histogram (Unspecified)
board.cache_hierarchy.ruby_system.l2_controllers0.delayHistogram::16-31         3882      0.12%    100.00% # delay_histogram (Unspecified)
board.cache_hierarchy.ruby_system.l2_controllers0.delayHistogram::32-47           44      0.00%    100.00% # delay_histogram (Unspecified)
board.cache_hierarchy.ruby_system.l2_controllers0.delayHistogram::total      3131050                       # delay_histogram (Unspecified)
board.cache_hierarchy.ruby_system.l2_controllers0.DirRequestFromL2Cache.m_msg_count       375578                       # Number of messages passed the buffer (Count)
board.cache_hierarchy.ruby_system.l2_controllers0.DirRequestFromL2Cache.m_buf_msgs     0.014040                       # Average number of messages in buffer ((Count/Tick))
board.cache_hierarchy.ruby_system.l2_controllers0.L1RequestFromL2Cache.m_msg_count         1401                       # Number of messages passed the buffer (Count)
board.cache_hierarchy.ruby_system.l2_controllers0.L1RequestFromL2Cache.m_buf_msgs     0.000026                       # Average number of messages in buffer ((Count/Tick))
board.cache_hierarchy.ruby_system.l2_controllers0.L1RequestToL2Cache.m_msg_count      1586785                       # Number of messages passed the buffer (Count)
board.cache_hierarchy.ruby_system.l2_controllers0.L1RequestToL2Cache.m_buf_msgs     0.029682                       # Average number of messages in buffer ((Count/Tick))
board.cache_hierarchy.ruby_system.l2_controllers0.L1RequestToL2Cache.m_stall_time       635500                       # Total number of ticks messages were stalled in this buffer (Tick)
board.cache_hierarchy.ruby_system.l2_controllers0.L1RequestToL2Cache.m_stall_count          120                       # Number of times messages were stalled (Count)
board.cache_hierarchy.ruby_system.l2_controllers0.L1RequestToL2Cache.m_avg_stall_time     0.400495                       # Average stall ticks per message ((Tick/Count))
board.cache_hierarchy.ruby_system.l2_controllers0.L2cache.m_demand_hits       418584                       # Number of cache demand hits (Unspecified)
board.cache_hierarchy.ruby_system.l2_controllers0.L2cache.m_demand_misses       375578                       # Number of cache demand misses (Unspecified)
board.cache_hierarchy.ruby_system.l2_controllers0.L2cache.m_demand_accesses       794162                       # Number of cache demand accesses (Unspecified)
board.cache_hierarchy.ruby_system.l2_controllers0.power_state.pwrStateResidencyTicks::UNDEFINED  26750752500                       # Cumulative time (in ticks) in various power states (Tick)
board.cache_hierarchy.ruby_system.l2_controllers0.responseFromL2Cache.m_msg_count      1961339                       # Number of messages passed the buffer (Count)
board.cache_hierarchy.ruby_system.l2_controllers0.responseFromL2Cache.m_buf_msgs     0.051484                       # Average number of messages in buffer ((Count/Tick))
board.cache_hierarchy.ruby_system.l2_controllers0.responseToL2Cache.m_msg_count       751533                       # Number of messages passed the buffer (Count)
board.cache_hierarchy.ruby_system.l2_controllers0.responseToL2Cache.m_buf_msgs     0.014047                       # Average number of messages in buffer ((Count/Tick))
board.cache_hierarchy.ruby_system.l2_controllers0.unblockToL2Cache.m_msg_count       793399                       # Number of messages passed the buffer (Count)
board.cache_hierarchy.ruby_system.l2_controllers0.unblockToL2Cache.m_buf_msgs     0.014829                       # Average number of messages in buffer ((Count/Tick))
board.cache_hierarchy.ruby_system.l2_controllers1.fullyBusyCycles            7                       # cycles for which number of transistions == max transitions (Unspecified)
board.cache_hierarchy.ruby_system.l2_controllers1.delayHistogram::samples      3121661                       # delay_histogram (Unspecified)
board.cache_hierarchy.ruby_system.l2_controllers1.delayHistogram::mean     0.351276                       # delay_histogram (Unspecified)
board.cache_hierarchy.ruby_system.l2_controllers1.delayHistogram::stdev     1.573276                       # delay_histogram (Unspecified)
board.cache_hierarchy.ruby_system.l2_controllers1.delayHistogram::0-15      3117950     99.88%     99.88% # delay_histogram (Unspecified)
board.cache_hierarchy.ruby_system.l2_controllers1.delayHistogram::16-31         3676      0.12%    100.00% # delay_histogram (Unspecified)
board.cache_hierarchy.ruby_system.l2_controllers1.delayHistogram::32-47           35      0.00%    100.00% # delay_histogram (Unspecified)
board.cache_hierarchy.ruby_system.l2_controllers1.delayHistogram::total      3121661                       # delay_histogram (Unspecified)
board.cache_hierarchy.ruby_system.l2_controllers1.DirRequestFromL2Cache.m_msg_count       374804                       # Number of messages passed the buffer (Count)
board.cache_hierarchy.ruby_system.l2_controllers1.DirRequestFromL2Cache.m_buf_msgs     0.014011                       # Average number of messages in buffer ((Count/Tick))
board.cache_hierarchy.ruby_system.l2_controllers1.L1RequestFromL2Cache.m_msg_count         1078                       # Number of messages passed the buffer (Count)
board.cache_hierarchy.ruby_system.l2_controllers1.L1RequestFromL2Cache.m_buf_msgs     0.000020                       # Average number of messages in buffer ((Count/Tick))
board.cache_hierarchy.ruby_system.l2_controllers1.L1RequestToL2Cache.m_msg_count      1581916                       # Number of messages passed the buffer (Count)
board.cache_hierarchy.ruby_system.l2_controllers1.L1RequestToL2Cache.m_buf_msgs     0.029583                       # Average number of messages in buffer ((Count/Tick))
board.cache_hierarchy.ruby_system.l2_controllers1.L1RequestToL2Cache.m_stall_time       406000                       # Total number of ticks messages were stalled in this buffer (Tick)
board.cache_hierarchy.ruby_system.l2_controllers1.L1RequestToL2Cache.m_stall_count           96                       # Number of times messages were stalled (Count)
board.cache_hierarchy.ruby_system.l2_controllers1.L1RequestToL2Cache.m_avg_stall_time     0.256651                       # Average stall ticks per message ((Tick/Count))
board.cache_hierarchy.ruby_system.l2_controllers1.L2cache.m_demand_hits       416762                       # Number of cache demand hits (Unspecified)
board.cache_hierarchy.ruby_system.l2_controllers1.L2cache.m_demand_misses       374804                       # Number of cache demand misses (Unspecified)
board.cache_hierarchy.ruby_system.l2_controllers1.L2cache.m_demand_accesses       791566                       # Number of cache demand accesses (Unspecified)
board.cache_hierarchy.ruby_system.l2_controllers1.power_state.pwrStateResidencyTicks::UNDEFINED  26750752500                       # Cumulative time (in ticks) in various power states (Tick)
board.cache_hierarchy.ruby_system.l2_controllers1.responseFromL2Cache.m_msg_count      1955696                       # Number of messages passed the buffer (Count)
board.cache_hierarchy.ruby_system.l2_controllers1.responseFromL2Cache.m_buf_msgs     0.051330                       # Average number of messages in buffer ((Count/Tick))
board.cache_hierarchy.ruby_system.l2_controllers1.responseToL2Cache.m_msg_count       749662                       # Number of messages passed the buffer (Count)
board.cache_hierarchy.ruby_system.l2_controllers1.responseToL2Cache.m_buf_msgs     0.014012                       # Average number of messages in buffer ((Count/Tick))
board.cache_hierarchy.ruby_system.l2_controllers1.unblockToL2Cache.m_msg_count       790799                       # Number of messages passed the buffer (Count)
board.cache_hierarchy.ruby_system.l2_controllers1.unblockToL2Cache.m_buf_msgs     0.014781                       # Average number of messages in buffer ((Count/Tick))
board.cache_hierarchy.ruby_system.l2_controllers2.fullyBusyCycles            5                       # cycles for which number of transistions == max transitions (Unspecified)
board.cache_hierarchy.ruby_system.l2_controllers2.delayHistogram::samples      3123994                       # delay_histogram (Unspecified)
board.cache_hierarchy.ruby_system.l2_controllers2.delayHistogram::mean     0.349026                       # delay_histogram (Unspecified)
board.cache_hierarchy.ruby_system.l2_controllers2.delayHistogram::stdev     1.572378                       # delay_histogram (Unspecified)
board.cache_hierarchy.ruby_system.l2_controllers2.delayHistogram::0-15      3120313     99.88%     99.88% # delay_histogram (Unspecified)
board.cache_hierarchy.ruby_system.l2_controllers2.delayHistogram::16-31         3622      0.12%    100.00% # delay_histogram (Unspecified)
board.cache_hierarchy.ruby_system.l2_controllers2.delayHistogram::32-47           58      0.00%    100.00% # delay_histogram (Unspecified)
board.cache_hierarchy.ruby_system.l2_controllers2.delayHistogram::48-63            1      0.00%    100.00% # delay_histogram (Unspecified)
board.cache_hierarchy.ruby_system.l2_controllers2.delayHistogram::total      3123994                       # delay_histogram (Unspecified)
board.cache_hierarchy.ruby_system.l2_controllers2.DirRequestFromL2Cache.m_msg_count       374709                       # Number of messages passed the buffer (Count)
board.cache_hierarchy.ruby_system.l2_controllers2.DirRequestFromL2Cache.m_buf_msgs     0.014007                       # Average number of messages in buffer ((Count/Tick))
board.cache_hierarchy.ruby_system.l2_controllers2.L1RequestFromL2Cache.m_msg_count         1073                       # Number of messages passed the buffer (Count)
board.cache_hierarchy.ruby_system.l2_controllers2.L1RequestFromL2Cache.m_buf_msgs     0.000020                       # Average number of messages in buffer ((Count/Tick))
board.cache_hierarchy.ruby_system.l2_controllers2.L1RequestToL2Cache.m_msg_count      1583425                       # Number of messages passed the buffer (Count)
board.cache_hierarchy.ruby_system.l2_controllers2.L1RequestToL2Cache.m_buf_msgs     0.029604                       # Average number of messages in buffer ((Count/Tick))
board.cache_hierarchy.ruby_system.l2_controllers2.L1RequestToL2Cache.m_stall_time       214000                       # Total number of ticks messages were stalled in this buffer (Tick)
board.cache_hierarchy.ruby_system.l2_controllers2.L1RequestToL2Cache.m_stall_count           51                       # Number of times messages were stalled (Count)
board.cache_hierarchy.ruby_system.l2_controllers2.L1RequestToL2Cache.m_avg_stall_time     0.135150                       # Average stall ticks per message ((Tick/Count))
board.cache_hierarchy.ruby_system.l2_controllers2.L2cache.m_demand_hits       417608                       # Number of cache demand hits (Unspecified)
board.cache_hierarchy.ruby_system.l2_controllers2.L2cache.m_demand_misses       374709                       # Number of cache demand misses (Unspecified)
board.cache_hierarchy.ruby_system.l2_controllers2.L2cache.m_demand_accesses       792317                       # Number of cache demand accesses (Unspecified)
board.cache_hierarchy.ruby_system.l2_controllers2.power_state.pwrStateResidencyTicks::UNDEFINED  26750752500                       # Cumulative time (in ticks) in various power states (Tick)
board.cache_hierarchy.ruby_system.l2_controllers2.responseFromL2Cache.m_msg_count      1957110                       # Number of messages passed the buffer (Count)
board.cache_hierarchy.ruby_system.l2_controllers2.responseFromL2Cache.m_buf_msgs     0.051371                       # Average number of messages in buffer ((Count/Tick))
board.cache_hierarchy.ruby_system.l2_controllers2.responseToL2Cache.m_msg_count       749467                       # Number of messages passed the buffer (Count)
board.cache_hierarchy.ruby_system.l2_controllers2.responseToL2Cache.m_buf_msgs     0.014008                       # Average number of messages in buffer ((Count/Tick))
board.cache_hierarchy.ruby_system.l2_controllers2.unblockToL2Cache.m_msg_count       791820                       # Number of messages passed the buffer (Count)
board.cache_hierarchy.ruby_system.l2_controllers2.unblockToL2Cache.m_buf_msgs     0.014800                       # Average number of messages in buffer ((Count/Tick))
board.cache_hierarchy.ruby_system.l2_controllers3.fullyBusyCycles            5                       # cycles for which number of transistions == max transitions (Unspecified)
board.cache_hierarchy.ruby_system.l2_controllers3.delayHistogram::samples      3121052                       # delay_histogram (Unspecified)
board.cache_hierarchy.ruby_system.l2_controllers3.delayHistogram::mean     0.348300                       # delay_histogram (Unspecified)
board.cache_hierarchy.ruby_system.l2_controllers3.delayHistogram::stdev     1.568134                       # delay_histogram (Unspecified)
board.cache_hierarchy.ruby_system.l2_controllers3.delayHistogram::0-15      3117408     99.88%     99.88% # delay_histogram (Unspecified)
board.cache_hierarchy.ruby_system.l2_controllers3.delayHistogram::16-31         3582      0.11%    100.00% # delay_histogram (Unspecified)
board.cache_hierarchy.ruby_system.l2_controllers3.delayHistogram::32-47           57      0.00%    100.00% # delay_histogram (Unspecified)
board.cache_hierarchy.ruby_system.l2_controllers3.delayHistogram::48-63            5      0.00%    100.00% # delay_histogram (Unspecified)
board.cache_hierarchy.ruby_system.l2_controllers3.delayHistogram::total      3121052                       # delay_histogram (Unspecified)
board.cache_hierarchy.ruby_system.l2_controllers3.DirRequestFromL2Cache.m_msg_count       374023                       # Number of messages passed the buffer (Count)
board.cache_hierarchy.ruby_system.l2_controllers3.DirRequestFromL2Cache.m_buf_msgs     0.013982                       # Average number of messages in buffer ((Count/Tick))
board.cache_hierarchy.ruby_system.l2_controllers3.L1RequestFromL2Cache.m_msg_count          860                       # Number of messages passed the buffer (Count)
board.cache_hierarchy.ruby_system.l2_controllers3.L1RequestFromL2Cache.m_buf_msgs     0.000016                       # Average number of messages in buffer ((Count/Tick))
board.cache_hierarchy.ruby_system.l2_controllers3.L1RequestToL2Cache.m_msg_count      1582476                       # Number of messages passed the buffer (Count)
board.cache_hierarchy.ruby_system.l2_controllers3.L1RequestToL2Cache.m_buf_msgs     0.029587                       # Average number of messages in buffer ((Count/Tick))
board.cache_hierarchy.ruby_system.l2_controllers3.L1RequestToL2Cache.m_stall_time       241500                       # Total number of ticks messages were stalled in this buffer (Tick)
board.cache_hierarchy.ruby_system.l2_controllers3.L1RequestToL2Cache.m_stall_count           50                       # Number of times messages were stalled (Count)
board.cache_hierarchy.ruby_system.l2_controllers3.L1RequestToL2Cache.m_avg_stall_time     0.152609                       # Average stall ticks per message ((Tick/Count))
board.cache_hierarchy.ruby_system.l2_controllers3.L2cache.m_demand_hits       417717                       # Number of cache demand hits (Unspecified)
board.cache_hierarchy.ruby_system.l2_controllers3.L2cache.m_demand_misses       374023                       # Number of cache demand misses (Unspecified)
board.cache_hierarchy.ruby_system.l2_controllers3.L2cache.m_demand_accesses       791740                       # Number of cache demand accesses (Unspecified)
board.cache_hierarchy.ruby_system.l2_controllers3.power_state.pwrStateResidencyTicks::UNDEFINED  26750752500                       # Cumulative time (in ticks) in various power states (Tick)
board.cache_hierarchy.ruby_system.l2_controllers3.responseFromL2Cache.m_msg_count      1955475                       # Number of messages passed the buffer (Count)
board.cache_hierarchy.ruby_system.l2_controllers3.responseFromL2Cache.m_buf_msgs     0.051329                       # Average number of messages in buffer ((Count/Tick))
board.cache_hierarchy.ruby_system.l2_controllers3.responseToL2Cache.m_msg_count       747882                       # Number of messages passed the buffer (Count)
board.cache_hierarchy.ruby_system.l2_controllers3.responseToL2Cache.m_buf_msgs     0.013979                       # Average number of messages in buffer ((Count/Tick))
board.cache_hierarchy.ruby_system.l2_controllers3.unblockToL2Cache.m_msg_count       791390                       # Number of messages passed the buffer (Count)
board.cache_hierarchy.ruby_system.l2_controllers3.unblockToL2Cache.m_buf_msgs     0.014792                       # Average number of messages in buffer ((Count/Tick))
board.cache_hierarchy.ruby_system.network.msg_count.Control      9337799                       (Unspecified)
board.cache_hierarchy.ruby_system.network.msg_byte.Control     74702392                       (Unspecified)
board.cache_hierarchy.ruby_system.network.msg_count.Request_Control         8824                       (Unspecified)
board.cache_hierarchy.ruby_system.network.msg_byte.Request_Control        70592                       (Unspecified)
board.cache_hierarchy.ruby_system.network.msg_count.Response_Data      9647934                       (Unspecified)
board.cache_hierarchy.ruby_system.network.msg_byte.Response_Data    694651248                       (Unspecified)
board.cache_hierarchy.ruby_system.network.msg_count.Response_Control     18342752                       (Unspecified)
board.cache_hierarchy.ruby_system.network.msg_byte.Response_Control    146742016                       (Unspecified)
board.cache_hierarchy.ruby_system.network.msg_count.Writeback_Data       328716                       (Unspecified)
board.cache_hierarchy.ruby_system.network.msg_byte.Writeback_Data     23667552                       (Unspecified)
board.cache_hierarchy.ruby_system.network.msg_count.Writeback_Control      6001376                       (Unspecified)
board.cache_hierarchy.ruby_system.network.msg_byte.Writeback_Control     48011008                       (Unspecified)
board.cache_hierarchy.ruby_system.network.int_links0.buffers0.m_msg_count      1586502                       # Number of messages passed the buffer (Count)
board.cache_hierarchy.ruby_system.network.int_links0.buffers0.m_buf_msgs     0.029703                       # Average number of messages in buffer ((Count/Tick))
board.cache_hierarchy.ruby_system.network.int_links0.buffers1.m_msg_count         1401                       # Number of messages passed the buffer (Count)
board.cache_hierarchy.ruby_system.network.int_links0.buffers1.m_buf_msgs     0.000026                       # Average number of messages in buffer ((Count/Tick))
board.cache_hierarchy.ruby_system.network.int_links0.buffers2.m_msg_count       793287                       # Number of messages passed the buffer (Count)
board.cache_hierarchy.ruby_system.network.int_links0.buffers2.m_buf_msgs     0.014852                       # Average number of messages in buffer ((Count/Tick))
board.cache_hierarchy.ruby_system.network.int_links1.buffers0.m_msg_count      1581609                       # Number of messages passed the buffer (Count)
board.cache_hierarchy.ruby_system.network.int_links1.buffers0.m_buf_msgs     0.029611                       # Average number of messages in buffer ((Count/Tick))
board.cache_hierarchy.ruby_system.network.int_links1.buffers1.m_msg_count         1078                       # Number of messages passed the buffer (Count)
board.cache_hierarchy.ruby_system.network.int_links1.buffers1.m_buf_msgs     0.000020                       # Average number of messages in buffer ((Count/Tick))
board.cache_hierarchy.ruby_system.network.int_links1.buffers2.m_msg_count       790677                       # Number of messages passed the buffer (Count)
board.cache_hierarchy.ruby_system.network.int_links1.buffers2.m_buf_msgs     0.014803                       # Average number of messages in buffer ((Count/Tick))
board.cache_hierarchy.ruby_system.network.int_links10.buffers0.m_msg_count       375305                       # Number of messages passed the buffer (Count)
board.cache_hierarchy.ruby_system.network.int_links10.buffers0.m_buf_msgs     0.007027                       # Average number of messages in buffer ((Count/Tick))
board.cache_hierarchy.ruby_system.network.int_links10.buffers1.m_msg_count       374554                       # Number of messages passed the buffer (Count)
board.cache_hierarchy.ruby_system.network.int_links10.buffers1.m_buf_msgs     0.007012                       # Average number of messages in buffer ((Count/Tick))
board.cache_hierarchy.ruby_system.network.int_links12.buffers1.m_msg_count      1581610                       # Number of messages passed the buffer (Count)
board.cache_hierarchy.ruby_system.network.int_links12.buffers1.m_buf_msgs     0.029611                       # Average number of messages in buffer ((Count/Tick))
board.cache_hierarchy.ruby_system.network.int_links12.buffers2.m_msg_count         1078                       # Number of messages passed the buffer (Count)
board.cache_hierarchy.ruby_system.network.int_links12.buffers2.m_buf_msgs     0.000020                       # Average number of messages in buffer ((Count/Tick))
board.cache_hierarchy.ruby_system.network.int_links16.buffers0.m_msg_count       374516                       # Number of messages passed the buffer (Count)
board.cache_hierarchy.ruby_system.network.int_links16.buffers0.m_buf_msgs     0.007012                       # Average number of messages in buffer ((Count/Tick))
board.cache_hierarchy.ruby_system.network.int_links16.buffers1.m_msg_count       373780                       # Number of messages passed the buffer (Count)
board.cache_hierarchy.ruby_system.network.int_links16.buffers1.m_buf_msgs     0.006998                       # Average number of messages in buffer ((Count/Tick))
[...]
board.processor.cores.core.fetch.nisnDist::stdev     2.500513                       # Number of instructions fetched each cycle (Total) (Count)
board.processor.cores.core.fetch.nisnDist::underflows            0      0.00%      0.00% # Number of instructions fetched each cycle (Total) (Count)
board.processor.cores.core.fetch.nisnDist::0     41619330     79.89%     79.89% # Number of instructions fetched each cycle (Total) (Count)
board.processor.cores.core.fetch.nisnDist::1       444527      0.85%     80.74% # Number of instructions fetched each cycle (Total) (Count)
board.processor.cores.core.fetch.nisnDist::2       912328      1.75%     82.49% # Number of instructions fetched each cycle (Total) (Count)
board.processor.cores.core.fetch.nisnDist::3       682784      1.31%     83.80% # Number of instructions fetched each cycle (Total) (Count)
board.processor.cores.core.fetch.nisnDist::4       450631      0.86%     84.67% # Number of instructions fetched each cycle (Total) (Count)
board.processor.cores.core.fetch.nisnDist::5      1054376      2.02%     86.69% # Number of instructions fetched each cycle (Total) (Count)
board.processor.cores.core.fetch.nisnDist::6       357880      0.69%     87.38% # Number of instructions fetched each cycle (Total) (Count)
board.processor.cores.core.fetch.nisnDist::7      5401433     10.37%     97.74% # Number of instructions fetched each cycle (Total) (Count)
board.processor.cores.core.fetch.nisnDist::8      1175552      2.26%    100.00% # Number of instructions fetched each cycle (Total) (Count)
board.processor.cores.core.fetch.nisnDist::overflows            0      0.00%    100.00% # Number of instructions fetched each cycle (Total) (Count)
board.processor.cores.core.fetch.nisnDist::min_value            0                       # Number of instructions fetched each cycle (Total) (Count)
board.processor.cores.core.fetch.nisnDist::max_value            8                       # Number of instructions fetched each cycle (Total) (Count)
board.processor.cores.core.fetch.nisnDist::total     52098841                       # Number of instructions fetched each cycle (Total) (Count)
board.processor.cores.core.fetchStats0.numInsts     60753569                       # Number of instructions fetched (thread level) (Count)
board.processor.cores.core.fetchStats0.numOps            0                       # Number of ops (including micro ops) fetched (thread level) (Count)
board.processor.cores.core.fetchStats0.fetchRate     1.137058                       # Number of inst fetches per cycle ((Count/Cycle))
board.processor.cores.core.fetchStats0.numBranches     15893053                       # Number of branches fetched (Count)
board.processor.cores.core.fetchStats0.branchRate     0.297453                       # Number of branch fetches per cycle (Ratio)
board.processor.cores.core.fetchStats0.icacheStallCycles       948572                       # ICache total stall cycles (Cycle)
board.processor.cores.core.fetchStats0.numFetchSuspends            0                       # Number of times Execute suspended instruction fetching (Count)
board.processor.cores.core.iew.idleCycles            0                       # Number of cycles IEW is idle (Cycle)
board.processor.cores.core.iew.squashCycles       301531                       # Number of cycles IEW is squashing (Cycle)
board.processor.cores.core.iew.blockCycles     24972395                       # Number of cycles IEW is blocking (Cycle)
board.processor.cores.core.iew.unblockCycles       727647                       # Number of cycles IEW is unblocking (Cycle)
board.processor.cores.core.iew.dispatchedInsts     48349196                       # Number of instructions dispatched to IQ (Count)
board.processor.cores.core.iew.dispSquashedInsts        41895                       # Number of squashed instructions skipped by dispatch (Count)
board.processor.cores.core.iew.dispLoadInsts     12895331                       # Number of dispatched load instructions (Count)
board.processor.cores.core.iew.dispStoreInsts      1364993                       # Number of dispatched store instructions (Count)
board.processor.cores.core.iew.dispNonSpecInsts          150                       # Number of dispatched non-speculative instructions (Count)
board.processor.cores.core.iew.iqFullEvents       321030                       # Number of times the IQ has become full, causing a stall (Count)
board.processor.cores.core.iew.lsqFullEvents            0                       # Number of times the LSQ has become full, causing a stall (Count)
board.processor.cores.core.iew.memOrderViolationEvents           44                       # Number of memory order violations (Count)
board.processor.cores.core.iew.predictedTakenIncorrect       170505                       # Number of branches that were predicted taken incorrectly (Count)
board.processor.cores.core.iew.predictedNotTakenIncorrect       163674                       # Number of branches that were predicted not taken incorrectly (Count)
board.processor.cores.core.iew.branchMispredicts       334179                       # Number of branch mispredicts detected at execute (Count)
board.processor.cores.core.iew.instsToCommit     39890149                       # Cumulative count of insts sent to commit (Count)
board.processor.cores.core.iew.writebackCount     39759006                       # Cumulative count of insts written-back (Count)
board.processor.cores.core.iew.producerInst     27260394                       # Number of instructions producing a value (Count)
board.processor.cores.core.iew.consumerInst     37321889                       # Number of instructions consuming a value (Count)
board.processor.cores.core.iew.wbRate        0.744126                       # Insts written-back per cycle ((Count/Cycle))
board.processor.cores.core.iew.wbFanout      0.730413                       # Average fanout of values written-back ((Count/Count))
board.processor.cores.core.lsq0.forwLoads          280                       # Number of loads that had data forwarded from stores (Count)
board.processor.cores.core.lsq0.squashedLoads      4323058                       # Number of loads squashed (Count)
board.processor.cores.core.lsq0.ignoredResponses           21                       # Number of memory responses ignored because the instruction is squashed (Count)
board.processor.cores.core.lsq0.memOrderViolation           44                       # Number of memory ordering violations (Count)
board.processor.cores.core.lsq0.squashedStores       777521                       # Number of stores squashed (Count)
board.processor.cores.core.lsq0.rescheduledLoads            0                       # Number of loads that were rescheduled (Count)
board.processor.cores.core.lsq0.blockedByCache      1145170                       # Number of times an access to memory failed due to the cache being blocked (Count)
board.processor.cores.core.lsq0.loadToUse::samples      8572273                       # Distribution of cycle latency between the first time a load is issued and its completion (Unspecified)
board.processor.cores.core.lsq0.loadToUse::mean    62.652673                       # Distribution of cycle latency between the first time a load is issued and its completion (Unspecified)
board.processor.cores.core.lsq0.loadToUse::stdev    80.621286                       # Distribution of cycle latency between the first time a load is issued and its completion (Unspecified)
board.processor.cores.core.lsq0.loadToUse::0-9      2908449     33.93%     33.93% # Distribution of cycle latency between the first time a load is issued and its completion (Unspecified)
board.processor.cores.core.lsq0.loadToUse::10-19       608825      7.10%     41.03% # Distribution of cycle latency between the first time a load is issued and its completion (Unspecified)
board.processor.cores.core.lsq0.loadToUse::20-29       584235      6.82%     47.85% # Distribution of cycle latency between the first time a load is issued and its completion (Unspecified)
board.processor.cores.core.lsq0.loadToUse::30-39       411833      4.80%     52.65% # Distribution of cycle latency between the first time a load is issued and its completion (Unspecified)
board.processor.cores.core.lsq0.loadToUse::40-49       301669      3.52%     56.17% # Distribution of cycle latency between the first time a load is issued and its completion (Unspecified)
board.processor.cores.core.lsq0.loadToUse::50-59       224034      2.61%     58.78% # Distribution of cycle latency between the first time a load is issued and its completion (Unspecified)
board.processor.cores.core.lsq0.loadToUse::60-69       152587      1.78%     60.56% # Distribution of cycle latency between the first time a load is issued and its completion (Unspecified)
board.processor.cores.core.lsq0.loadToUse::70-79       127997      1.49%     62.06% # Distribution of cycle latency between the first time a load is issued and its completion (Unspecified)
board.processor.cores.core.lsq0.loadToUse::80-89       181330      2.12%     64.17% # Distribution of cycle latency between the first time a load is issued and its completion (Unspecified)
board.processor.cores.core.lsq0.loadToUse::90-99       637971      7.44%     71.61% # Distribution of cycle latency between the first time a load is issued and its completion (Unspecified)
board.processor.cores.core.lsq0.loadToUse::100-109       784440      9.15%     80.76% # Distribution of cycle latency between the first time a load is issued and its completion (Unspecified)
board.processor.cores.core.lsq0.loadToUse::110-119       200398      2.34%     83.10% # Distribution of cycle latency between the first time a load is issued and its completion (Unspecified)
board.processor.cores.core.lsq0.loadToUse::120-129       161188      1.88%     84.98% # Distribution of cycle latency between the first time a load is issued and its completion (Unspecified)
board.processor.cores.core.lsq0.loadToUse::130-139       229387      2.68%     87.66% # Distribution of cycle latency between the first time a load is issued and its completion (Unspecified)
board.processor.cores.core.lsq0.loadToUse::140-149       126660      1.48%     89.14% # Distribution of cycle latency between the first time a load is issued and its completion (Unspecified)
board.processor.cores.core.lsq0.loadToUse::150-159       363760      4.24%     93.38% # Distribution of cycle latency between the first time a load is issued and its completion (Unspecified)
board.processor.cores.core.lsq0.loadToUse::160-169       227661      2.66%     96.04% # Distribution of cycle latency between the first time a load is issued and its completion (Unspecified)
board.processor.cores.core.lsq0.loadToUse::170-179        77492      0.90%     96.94% # Distribution of cycle latency between the first time a load is issued and its completion (Unspecified)
board.processor.cores.core.lsq0.loadToUse::180-189        35421      0.41%     97.35% # Distribution of cycle latency between the first time a load is issued and its completion (Unspecified)
board.processor.cores.core.lsq0.loadToUse::190-199        22580      0.26%     97.62% # Distribution of cycle latency between the first time a load is issued and its completion (Unspecified)
board.processor.cores.core.lsq0.loadToUse::200-209        21171      0.25%     97.86% # Distribution of cycle latency between the first time a load is issued and its completion (Unspecified)
board.processor.cores.core.lsq0.loadToUse::210-219        16801      0.20%     98.06% # Distribution of cycle latency between the first time a load is issued and its completion (Unspecified)
board.processor.cores.core.lsq0.loadToUse::220-229        13006      0.15%     98.21% # Distribution of cycle latency between the first time a load is issued and its completion (Unspecified)
board.processor.cores.core.lsq0.loadToUse::230-239        12719      0.15%     98.36% # Distribution of cycle latency between the first time a load is issued and its completion (Unspecified)
board.processor.cores.core.lsq0.loadToUse::240-249        16607      0.19%     98.55% # Distribution of cycle latency between the first time a load is issued and its completion (Unspecified)
board.processor.cores.core.lsq0.loadToUse::250-259         7180      0.08%     98.64% # Distribution of cycle latency between the first time a load is issued and its completion (Unspecified)
board.processor.cores.core.lsq0.loadToUse::260-269         5011      0.06%     98.70% # Distribution of cycle latency between the first time a load is issued and its completion (Unspecified)
board.processor.cores.core.lsq0.loadToUse::270-279         4590      0.05%     98.75% # Distribution of cycle latency between the first time a load is issued and its completion (Unspecified)
board.processor.cores.core.lsq0.loadToUse::280-289         4346      0.05%     98.80% # Distribution of cycle latency between the first time a load is issued and its completion (Unspecified)
board.processor.cores.core.lsq0.loadToUse::290-299         6441      0.08%     98.87% # Distribution of cycle latency between the first time a load is issued and its completion (Unspecified)
board.processor.cores.core.lsq0.loadToUse::overflows        96484      1.13%    100.00% # Distribution of cycle latency between the first time a load is issued and its completion (Unspecified)
board.processor.cores.core.lsq0.loadToUse::min_value            2                       # Distribution of cycle latency between the first time a load is issued and its completion (Unspecified)
board.processor.cores.core.lsq0.loadToUse::max_value         1637                       # Distribution of cycle latency between the first time a load is issued and its completion (Unspecified)
board.processor.cores.core.lsq0.loadToUse::total      8572273                       # Distribution of cycle latency between the first time a load is issued and its completion (Unspecified)
board.processor.cores.core.mmu.dtb.readHits            0                       # read hits (Count)
board.processor.cores.core.mmu.dtb.readMisses            0                       # read misses (Count)
board.processor.cores.core.mmu.dtb.readAccesses            0                       # read accesses (Count)
board.processor.cores.core.mmu.dtb.writeHits            0                       # write hits (Count)
board.processor.cores.core.mmu.dtb.writeMisses            0                       # write misses (Count)
board.processor.cores.core.mmu.dtb.writeAccesses            0                       # write accesses (Count)
board.processor.cores.core.mmu.dtb.hits             0                       # Total TLB (read and write) hits (Count)
board.processor.cores.core.mmu.dtb.misses            0                       # Total TLB (read and write) misses (Count)
board.processor.cores.core.mmu.dtb.accesses            0                       # Total TLB (read and write) accesses (Count)
board.processor.cores.core.mmu.dtb.walker.power_state.pwrStateResidencyTicks::UNDEFINED  26759628500                       # Cumulative time (in ticks) in various power states (Tick)
board.processor.cores.core.mmu.itb.readHits            0                       # read hits (Count)
board.processor.cores.core.mmu.itb.readMisses            0                       # read misses (Count)
board.processor.cores.core.mmu.itb.readAccesses            0                       # read accesses (Count)
board.processor.cores.core.mmu.itb.writeHits            0                       # write hits (Count)
board.processor.cores.core.mmu.itb.writeMisses            0                       # write misses (Count)
board.processor.cores.core.mmu.itb.writeAccesses            0                       # write accesses (Count)
board.processor.cores.core.mmu.itb.hits             0                       # Total TLB (read and write) hits (Count)
board.processor.cores.core.mmu.itb.misses            0                       # Total TLB (read and write) misses (Count)
board.processor.cores.core.mmu.itb.accesses            0                       # Total TLB (read and write) accesses (Count)
board.processor.cores.core.mmu.itb.walker.power_state.pwrStateResidencyTicks::UNDEFINED  26759628500                       # Cumulative time (in ticks) in various power states (Tick)
board.processor.cores.core.power_state.pwrStateResidencyTicks::ON  26759628500                       # Cumulative time (in ticks) in various power states (Tick)
board.processor.cores.core.rename.squashCycles       301531                       # Number of cycles rename is squashing (Cycle)
board.processor.cores.core.rename.idleCycles      2771356                       # Number of cycles rename is idle (Cycle)
board.processor.cores.core.rename.blockCycles     37712516                       # Number of cycles rename is blocking (Cycle)
board.processor.cores.core.rename.serializeStallCycles         3104                       # count of cycles rename stalled for serializing inst (Cycle)
board.processor.cores.core.rename.runCycles      5418484                       # Number of cycles rename is running (Cycle)
board.processor.cores.core.rename.unblockCycles      5891850                       # Number of cycles rename is unblocking (Cycle)
board.processor.cores.core.rename.renamedInsts     50510046                       # Number of instructions processed by rename (Count)
board.processor.cores.core.rename.ROBFullEvents       106813                       # Number of times rename has blocked due to ROB full (Count)
board.processor.cores.core.rename.IQFullEvents      4758794                       # Number of times rename has blocked due to IQ full (Count)
board.processor.cores.core.rename.fullRegistersEvents       368863                       # Number of times there has been no free registers (Count)
board.processor.cores.core.rename.renamedOperands     35878735                       # Number of destination operands rename has renamed (Count)
board.processor.cores.core.rename.lookups     65959719                       # Number of register rename lookups that rename has made (Count)
board.processor.cores.core.rename.intLookups     65958715                       # Number of integer rename lookups (Count)
board.processor.cores.core.rename.committedMaps     22674903                       # Number of HB maps that are committed (Count)
board.processor.cores.core.rename.undoneMaps     13203833                       # Number of HB maps that are undone due to squashing (Count)
board.processor.cores.core.rename.serializing           62                       # count of serializing insts renamed (Count)
board.processor.cores.core.rename.tempSerializing           61                       # count of temporary serializing insts renamed (Count)
board.processor.cores.core.rename.skidInsts     15197542                       # count of insts added to the skid buffer (Count)
board.processor.cores.core.rob.reads         95384847                       # The number of ROB reads (Count)
board.processor.cores.core.rob.writes        99187392                       # The number of ROB writes (Count)
board.processor.cores.core.thread_0.numInsts     31704304                       # Number of Instructions committed (Count)
board.processor.cores.core.thread_0.numOps     31704350                       # Number of Ops committed (Count)
board.processor.cores.core.thread_0.numMemRefs            0                       # Number of Memory References (Count)
board.processor.cores.core.workload.numSyscalls           11                       # Number of system calls (Count)
board.workload.inst.arm                             0                       # number of arm instructions executed (Count)
board.workload.inst.quiesce                         0                       # number of quiesce instructions executed (Count)

---------- End Simulation Statistics   ----------
